 408 
 
N                41.0635602481       52.6247857442       13.2999425072
C                41.3740118934       52.0748042194       14.5936460156
C                40.1749513440       51.7332938012       15.4739867680
O                40.3076394864       51.7942690158       16.6926273581
C                42.3188999360       53.0159157149       15.3354475569
C                41.6537640968       54.2898681575       15.8543249060
C                42.7054720280       55.3060481958       16.3105450097
C                42.6399610198       56.5360021561       15.4227155653
N                43.7939522957       57.4488719754       15.6707072140
H                41.0382311327       53.6322855052       13.2254791278
H                41.8781719778       51.1103889971       14.4170881987
H                42.7044084497       52.4908516831       16.1987986204
H                43.1473226409       53.2365131627       14.6617171120
H                41.0401065157       54.7580441389       15.0906989227
H                41.0090949153       54.0272449784       16.6912944510
H                42.5237849736       55.5674481203       17.3496254399
H                43.6952587772       54.8631415872       16.2177480044
H                42.6508220949       56.2144471135       14.3858787021
H                41.7009803902       57.0687726846       15.5775911158
H                43.4570153230       58.4915192765       15.7730350355
H                44.2631187344       57.1428573827       16.5301098903
H                44.4723482070       57.4160559985       14.9019689981
N                41.4431405520       48.8348912903       17.7203647085
C                42.3225192320       49.5362060109       18.6449013841
C                41.4613305925       50.2622859689       19.6791165884
O                41.7092428120       50.2123811832       20.8838947293
C                43.2171907307       50.4263843407       17.7716548034
C                43.8784576534       51.6541960409       18.3992935318
C                44.7577184094       52.3695406982       17.3598769933
C                42.8702660761       52.6448781701       18.9757300190
H                41.4832943675       49.1137835769       16.7522083555
H                42.9146105717       48.8064618929       19.2116316335
H                44.0068116261       49.7825811695       17.3811485902
H                42.5947367494       50.7660044501       16.9437902526
H                44.5326765828       51.3084235201       19.1939341276
H                44.4317045333       53.3897111477       17.2085880750
H                45.7625275880       52.4143054256       17.7561929447
H                44.7755695400       51.8654746670       16.3981646053
H                43.3253921383       53.6279927681       19.0236915802
H                41.9830925133       52.7000472237       18.3555752403
H                42.5802285270       52.3614745471       19.9809310826
N                57.7476076967       53.8891917893       22.0542525208
C                56.4840359363       54.2095844761       21.3941309474
C                56.6164641769       55.4169811179       20.4724388216
O                55.7845013167       55.6204815141       19.5849098049
C                55.3665409066       54.4270422579       22.4402360749
C                54.3673565821       55.5308674646       22.1107886651
C                54.6141559889       53.1234712759       22.6618445046
H                57.7044832398       53.7603436750       23.0593791561
H                56.2168765548       53.3572763983       20.7493914040
H                55.8678532327       54.7227537191       23.3592190609
H                53.6555274248       55.5841085829       22.9304738404
H                54.8723283499       56.4846315202       22.0285471248
H                53.8354975065       55.3260256673       21.1882767066
H                53.9267292944       53.2383697808       23.4932070789
H                54.0499656052       52.8758773666       21.7675586835
H                55.3057938759       52.3199956365       22.8891610681
N                57.6658787582       56.2020948650       20.6687995632
C                57.9534881230       57.3475440883       19.8509969038
C                59.0803317141       57.0929844906       18.8277005139
O                59.2533348122       57.8675914642       17.8954382906
C                58.3712256359       58.5508574988       20.7095877182
C                57.5941863562       58.6925833872       21.9909473270
C                58.2857176944       58.9562446807       23.1656955353
C                56.2230144607       58.5062006277       22.0760661348
C                57.6311768360       59.2170274900       24.3547897363
C                55.5732222947       58.6468834382       23.2945267421
C                56.2552852719       59.1002713424       24.4084595410
H                58.2087422170       56.1022007034       21.5219003594
H                57.0499838749       57.5817675932       19.2753464673
H                59.4297031276       58.4464078720       20.9610945385
H                58.2647677775       59.4353086613       20.0754166694
H                59.3631998465       58.9473806492       23.1411174819
H                55.6628678806       58.2498596744       21.1887546043
H                58.2002666127       59.4683836932       25.2384348435
H                54.5317340087       58.3851213490       23.3910423339
H                55.7205533908       59.3484605303       25.3124498767
N                59.2573959267       53.7601059562       17.6940934881
C                58.5026482892       52.7210119246       17.0191821487
C                57.7553252979       53.2945810925       15.8156322799
O                57.6334399999       52.6093067323       14.8021769323
C                57.5989839324       51.9941893675       18.0350139500
C                56.9936937801       50.6425193077       17.6401491982
C                58.1183669013       49.6595255540       17.3649425920
C                56.1738088121       50.1428646117       18.8284396573
H                58.9746512302       53.9454873962       18.6566085850
H                59.1983565475       51.9869525076       16.5947046987
H                58.2450966306       51.7858599947       18.8858221330
H                56.8266363611       52.6754465318       18.3907234520
H                56.3818387554       50.7140085921       16.7459581939
H                57.7561275958       48.6418658500       17.2467315562
H                58.6526153080       49.9440338256       16.4648324564
H                58.8121153201       49.6815440438       18.1977273169
H                55.6402791060       49.2292176103       18.5888215478
H                56.8686859875       49.9456491282       19.6389721414
H                55.4505987662       50.8817494575       19.1592581578
N                57.2333484092       54.5353623802       15.8579216818
C                56.6731011255       55.1027376801       14.6417235876
C                57.6979359976       55.3697474640       13.5300443356
O                57.4281695148       55.0173502952       12.3842728730
C                55.9467439390       56.3909333860       15.0548562008
C                56.3088501134       56.6409682801       16.5239802431
C                57.1388629918       55.4399803100       16.9904353892
H                55.9894009463       54.3697897493       14.1939716930
H                56.2764392106       57.2071668192       14.4150704702
H                54.8709254694       56.2889664626       14.9276055855
H                56.9211245777       57.5357550090       16.6164118629
H                55.4166621357       56.7798081929       17.1290644696
H                58.1203880527       55.7920833157       17.2791948836
H                56.7217103989       54.9342581134       17.8593907928
N                58.7014329830       51.8982893985       12.3838423697
C                57.6549195318       50.9727501323       11.9708012463
C                56.2745840882       51.6366439065       12.0370483025
O                55.4346319807       51.2715141771       12.8442763127
C                57.6225208883       49.7324039702       12.8650753401
H                58.4593234163       52.5111324667       13.1537423424
H                57.8759574032       50.6806819791       10.9365232729
H                56.8083739093       49.0849719884       12.5517395529
H                58.5613307136       49.1938734902       12.7771592679
H                57.4627236222       50.0423854205       13.8948504017
N                55.9792422210       52.5590478934       11.1059691900
C                54.7651570869       53.3482585166       11.2206013851
C                53.5186466652       52.5308044183       11.5429206759
O                52.6949816236       52.9362644782       12.3542573994
H                56.7158410619       52.9318343178       10.5278735575
H                54.8627163770       54.1053710551       12.0084402945
H                54.5864520773       53.8592052195       10.2724959754
N                53.3504082812       51.3949993461       10.8474548395
C                52.1410288997       50.5916595359       10.9109373132
C                51.7839224259       50.1617516353       12.3277342311
O                50.6310314667       49.8887333532       12.6451239051
C                52.2960870557       49.3230377912       10.0690480320
C                50.9853118078       48.5669379359        9.9184721222
C                51.1388102403       47.2533792816        9.0887055887
O                52.2785425656       46.9588772932        8.6792033777
O                50.0895941243       46.6006401913        8.9097466057
H                54.0480063152       51.1091871611       10.1777648248
H                51.2872645066       51.1753864759       10.5373561229
H                52.6547042450       49.5817907239        9.0713285471
H                53.0323275761       48.6576023391       10.5261081736
H                50.5710193627       48.2811166583       10.8873759728
H                50.2377987740       49.1844478098        9.4155421510
N                52.8013880433       50.0797728117       13.1876799900
C                52.5392341382       49.8363616722       14.5828028335
C                51.5411037513       50.8164945054       15.1674655466
O                51.1577215647       50.6449448689       16.3277446919
C                53.8455557709       49.9725048302       15.3714079460
C                54.2988913719       51.4330115745       15.4551590452
C                53.8418958835       52.1325524484       16.7359193223
C                54.4811384448       53.5102109877       16.8147681988
N                53.9854993054       54.3249384797       17.9581775043
H                53.7300245863       50.4178511120       12.9488678517
H                52.0948964723       48.8379484283       14.7084844225
H                53.6965023999       49.5671384325       16.3713574631
H                54.6005225598       49.3823346256       14.8530791599
H                55.3842760305       51.4644683768       15.3970734782
H                53.9504217167       51.9644274531       14.5733131251
H                52.7595805843       52.2093377600       16.7546810304
H                54.1733421431       51.5284221024       17.5788049769
H                55.5475252452       53.3421088630       16.9146018113
H                54.3104589056       54.0526887251       15.8868392340
H                54.6034142947       55.1363112747       18.1608526854
H                53.0365352348       54.6907660430       17.7877711949
H                53.9456468509       53.7866710333       18.8447101826
N                51.1571052462       51.8779036287       14.4793094328
C                50.3595643100       52.9003411140       15.1171182138
C                49.3400078878       52.3330879095       16.1111982111
O                49.1512731794       52.8934886552       17.1812082463
C                49.6786297280       53.7730600200       14.0532968991
C                49.3161292198       55.1555557371       14.5795886487
S                50.6842048826       56.3498828500       14.5261357707
C                51.7890490767       55.6718780207       15.8348184106
H                51.5424426880       52.1391325213       13.5745463735
H                51.0368249695       53.5183993473       15.7088172514
H                50.3383660474       53.8769193465       13.1863246867
H                48.7659117394       53.2677702798       13.7397748546
H                48.5452201763       55.6198894483       13.9619058955
H                48.9492230353       55.0822191244       15.6022975295
H                52.4415454219       56.5015832845       16.0751523999
H                51.1652846596       55.3796206741       16.6781992077
H                52.3653313475       54.8579406934       15.4079386143
N                48.6354135418       51.2538993743       15.7362982015
C                47.6071908308       50.7107958691       16.6006995395
C                48.1834456283       49.9347671737       17.7897928935
O                47.7578356214       50.0940401673       18.9279455116
C                46.6406565258       49.8538295891       15.7809823494
O                47.3661233055       48.8094376612       15.1707930946
H                48.8268124610       50.7715652319       14.8698751649
H                47.0747015012       51.5538338966       17.0457407497
H                45.8638824143       49.4456903547       16.4413347104
H                46.1768431689       50.5058750148       15.0302310029
H                46.7990126403       48.3272916319       14.5578681857
N                49.1888001578       49.1371805611       17.4618282515
C                50.0743773271       48.4685454380       18.3972227564
C                50.4502560995       49.4583637762       19.4960233635
O                50.3712864902       49.1703399110       20.6872186112
C                51.2251284024       47.9228568577       17.5384666201
C                52.3969737205       47.2480753480       18.2447718312
C                53.3402272425       46.6541942046       17.1915403106
C                53.1310089079       48.2446861020       19.1424987286
H                49.4313225625       49.1115666985       16.4835242834
H                49.5539348430       47.6484151750       18.9057191793
H                50.7628804922       47.1892348600       16.8766582480
H                51.6128641959       48.7559239503       16.9563131117
H                52.0012501636       46.4246537042       18.8395995028
H                54.0837235461       46.0002283264       17.6431899056
H                52.7780237471       46.0557189011       16.4792887730
H                53.8703255355       47.4375365651       16.6594143124
H                54.1532366400       47.9277170505       19.3225922883
H                53.1498428667       49.2212750948       18.6695161993
H                52.6445225342       48.3239861352       20.1093243337
N                50.8378311152       50.6657708514       19.0857626836
C                51.2326668409       51.6940504997       20.0183766612
C                50.1572784749       51.9252335368       21.0689915975
O                50.4549972076       52.1570328647       22.2356479582
C                51.4528239274       53.0168945213       19.2650715508
O                52.2788052544       53.8933396084       19.9844952109
H                50.8642154338       50.8904658033       18.0970746750
H                52.1463575510       51.3895434817       20.5528645408
H                51.9534955436       52.7933973686       18.3250563473
H                50.4877216234       53.4712327468       19.0206780821
H                51.8896094304       54.0509707622       20.8544659731
N                48.9141159218       51.9855388679       20.6062385821
C                47.8288790547       52.1731360236       21.5468180931
C                47.9284792433       51.0899289582       22.6071065078
O                47.7964627585       51.3468490428       23.7952446072
C                46.4471066877       52.1989459651       20.8670279837
C                45.8709166910       53.6200111853       20.8936357199
C                45.4827033438       51.1733661427       21.4758357044
C                45.3046665568       53.9958549672       22.2551479442
H                48.7053335054       51.8181603141       19.6313811017
H                48.0142579657       53.1178256424       22.0694641882
H                46.6106399867       51.9190745478       19.8238084926
H                46.6555618911       54.3185409273       20.5956076627
H                45.0713847053       53.6752472430       20.1600356664
H                44.4612267184       51.3920501634       21.1868317350
H                45.7219346774       50.1703616230       21.1336740594
H                45.5107089214       51.1681763181       22.5603422940
H                45.0162658207       55.0409283510       22.2856038565
H                44.4258733307       53.3996557729       22.4565076157
H                46.0271562291       53.8063690967       23.0437462639
N                48.1844500340       49.8588130151       22.1610829011
C                48.2298375350       48.7643668546       23.1085446467
C                49.2506560968       49.0971776479       24.2034446073
O                49.0133500794       48.9190717322       25.3918006711
C                48.5629748931       47.4294089221       22.4116924458
O                49.9227130968       47.1119301005       22.3923755593
H                48.1514458873       49.6595443788       21.1685789817
H                47.2554609215       48.6805734746       23.6084879424
H                48.0670707705       46.6259627963       22.9584484974
H                48.1580249913       47.4635256518       21.3909388095
H                50.3652538902       47.7281081677       21.7789486607
N                50.3997892989       49.5997750914       23.7505149174
C                51.4119192432       50.0709201919       24.6738784510
C                50.7973194485       51.1284984329       25.5900063364
O                50.8674853403       51.0070881834       26.8120178288
C                52.6122717310       50.6447464004       23.9399719367
H                50.5406335582       49.7131384576       22.7540076168
H                51.7066386376       49.2428714829       25.3340170158
H                53.3437681873       50.9922862423       24.6644733133
H                53.0770891322       49.8912443282       23.3115772471
H                52.2838651568       51.4800764627       23.3311169359
N                50.2229196388       52.1830712245       25.0249635588
C                49.6009943928       53.1903299193       25.8582583014
C                48.7935861936       52.5323057057       26.9741090094
O                48.8962360704       52.9231996235       28.1369125249
C                48.7152024636       54.1061725777       25.0162415810
C                49.4793500985       54.8261619879       23.8984198804
C                48.5319588634       55.7841579962       23.1877321089
C                50.6277110961       55.6379461995       24.4763931868
H                50.1009073946       52.2489824575       24.0219014141
H                50.3784706752       53.7691197329       26.3752724509
H                47.9164068897       53.5004098989       24.5883605711
H                48.2739299421       54.8557498794       25.6753209587
H                49.8678177631       54.0937187249       23.1879962133
H                49.0691938419       56.3511236421       22.4315881289
H                47.7054364131       55.2659612435       22.7149984067
H                48.1343035473       56.4678309766       23.9336302162
H                51.1010513286       56.2355785863       23.7027085205
H                50.2140381194       56.3122355852       25.2185834552
H                51.3731789804       55.0013536704       24.9445928338
N                50.7848371200       61.6671437564       21.9958205796
C                51.3096168710       60.8298634371       20.9397364787
C                50.1152424211       60.0458757967       20.4292232136
O                49.8828211284       59.9989507813       19.2286680774
C                52.5164589735       59.9366291860       21.2848472980
C                53.5310237830       60.7687972395       22.0612500580
C                52.1121720175       58.6422392549       21.9832155271
H                50.9987693900       61.4435729527       22.9596918683
H                51.6140794912       61.4945389356       20.1174901141
H                52.9504611948       59.6591468944       20.3163970450
H                54.4669950171       60.2534315421       22.2338793424
H                53.7475829203       61.6668917736       21.4902676513
H                53.1302159460       61.0400884421       23.0296553692
H                52.9916051285       58.0628253342       22.2422927900
H                51.5386310637       58.8334372492       22.8820420387
H                51.5029922033       58.0351065846       21.3193334879
N                49.2845657422       59.5086433641       21.3208803557
C                47.9802786659       59.0456611051       20.8847915160
C                47.3853155577       60.1101537808       19.9654707260
O                46.9759872354       59.8134450851       18.8563617610
C                47.0863140017       58.7916451726       22.0941076014
C                45.6358914044       58.4317982107       21.7598449696
C                45.5586182097       57.2916629299       20.7519440423
C                44.9297223306       58.0594513246       23.0632669461
H                49.5069609989       59.4338657727       22.3083856428
H                48.0733693388       58.1385774386       20.2705435706
H                47.5202955321       57.9850023250       22.6783321571
H                47.0856303935       59.6912170611       22.7049582706
H                45.1527755166       59.3146973011       21.3268220571
H                44.5499105177       56.8922812234       20.7120008616
H                45.8429015866       57.6471203938       19.7656927208
H                46.2343958108       56.4962317922       21.0446653195
H                43.8701456610       57.8831954654       22.9002688990
H                45.3646223973       57.1564427275       23.4842996617
H                45.0399642566       58.8627546181       23.7872635855
N                47.3599532753       61.3680551243       20.4532270272
C                46.5981055125       62.3594161186       19.7192700210
C                47.2528748933       62.6852924128       18.3754921339
O                46.5873980203       63.0470559866       17.4038770516
C                46.3558278228       63.6466616718       20.5050542701
C                45.1048624085       64.3496081507       19.9665918018
O                44.3755958468       63.8625849606       19.1212287183
N                44.8389898971       65.5458045194       20.5167932735
H                47.3945842548       61.5031300852       21.4669954948
H                45.6096555659       61.9398461932       19.4899657460
H                46.1869607208       63.3765609685       21.5508816362
H                47.2185899944       64.3099719990       20.4330501148
H                44.0217968929       66.0351515087       20.1813239520
H                45.3982808358       65.9522275239       21.2446977954
N                48.5749463977       62.5987003544       18.3457673954
C                49.3829193469       62.9216963165       17.1875296818
C                49.2703205789       61.7825625580       16.1708092995
O                48.9676754697       62.0067553138       15.0022303894
C                50.8117807613       63.1688853410       17.6607384252
C                51.7508265538       63.7944088777       16.6233407118
C                52.7361019864       64.6996862752       17.3601141724
C                52.4642041225       62.7165702140       15.8132213308
H                49.0829970474       62.4428521601       19.2154909354
H                48.9576123135       63.8108669714       16.7025253741
H                50.7305468494       63.8355768751       18.5193240337
H                51.2292501496       62.2179219872       17.9973662185
H                51.1503004505       64.3962383437       15.9346226840
H                53.5467418378       65.0065309954       16.7108404833
H                52.2114464062       65.5791840301       17.7182159954
H                53.1532095062       64.1724906723       18.2100490979
H                53.3050611925       63.1331722432       15.2674796705
H                52.8218816506       61.9220035292       16.4614047743
H                51.7673465716       62.2805847699       15.1032978211
N                49.5050193882       60.5787432448       16.6957827614
C                49.2159488350       59.2995939048       16.0970368856
C                47.7250164855       59.1171601442       15.8170447733
O                47.2696907453       58.0529333249       15.4203130557
C                49.5773261277       58.2015194065       17.0963644459
C                51.0236621918       58.2262590761       17.4485113285
N                51.9668907957       58.8824213314       16.7145192069
C                51.6322120267       57.5917897790       18.4993125022
C                53.1126176178       58.6487612318       17.2961341802
N                52.9677926702       57.8618220533       18.3901465353
H                49.6826620428       60.4981661431       17.6962546173
H                49.7940547753       59.1697221950       15.1778356919
H                48.9723902743       58.3548986932       17.9905525303
H                49.2865319791       57.2470685373       16.6561561117
H                51.2315723268       56.9885761000       19.2828753277
H                54.0539837899       59.0132293064       16.9400427421
H                53.6754657018       57.5363271677       19.0331739252
N                46.9750809585       60.1764572867       16.1597444882
C                45.5356710890       60.0575790814       16.1502266122
C                44.9791138443       60.8794550984       14.9754884203
O                44.3279197990       60.4244978864       14.0442604152
C                44.7907232932       60.4536988415       17.4314553770
C                43.3920234932       60.7277851215       17.0332254836
N                42.7681554176       59.8945342109       16.1454613977
C                42.6373860880       61.8459929371       17.2201847558
C                41.6819812218       60.5228874911       15.7725451085
N                41.5480630424       61.6952806894       16.4162214801
H                47.5037925173       60.9056056086       16.6286862302
H                45.3733189124       59.0051884514       15.9489406521
H                44.8720536955       59.6543922472       18.1628179687
H                45.1873600556       61.3742963444       17.8319735521
H                42.8076732770       62.7054438854       17.8328781001
H                40.9902924621       60.1424712269       15.0519454526
H                40.8128686726       62.3653941408       16.2522835642
N                46.9698851865       61.4877893040       13.0950696339
C                47.5819072647       60.6439893234       12.0963454761
C                46.5866582351       59.5106164513       11.6506534808
O                46.2024895252       59.5632322695       10.4676760365
C                48.8475346026       59.9993491136       12.6597357682
O                49.6087599246       59.4329958348       11.6187860505
O                46.2868510288       58.6567682917       12.5040524729
H                46.9738322177       61.0896120370       14.0232447341
H                47.7923156667       61.2482872300       11.2088600213
H                49.4359670638       60.7566078381       13.1986810448
H                48.5199324927       59.2172281185       13.3600488753
H                50.3052121856       58.8876258414       12.0144297025
H                41.6792187325       52.3530219705       12.7023564616
H                39.3067140700       51.4673984267       15.0551029107
H                41.6384936020       47.9563803854       17.7278330409
H                40.6699928583       50.7975489003       19.3836877733
H                58.0758586417       53.1214735049       21.7183061668
H                59.6724511006       56.2929902129       18.9246736430
H                60.1269535482       53.5297149965       17.7221923939
H                58.5634469554       55.8217256943       13.7459296319
H                59.4266503589       51.4342083144       12.6459272894
H                48.1739448464       51.7761206164       26.7638027763
H                51.0870381380       62.5083245065       21.8905139300
H                45.1410508556       61.8653819561       14.9339596876
H                47.4117584023       62.2706332987       13.1386969327
