331
Properties=species:S:1:pos:R:3 pbc="F F F"
N      17.20500000      32.47800000     104.62100000 
C      16.89300000      33.62700000     105.42100000 
C      17.88700000      33.77300000     106.53000000 
O      18.86600000      33.02200000     106.65000000 
C      15.44600000      33.58500000     105.86000000 
C      15.01900000      32.28400000     106.48800000 
O      13.79500000      32.16800000     106.75300000 
O      15.90000000      31.39600000     106.69900000 
H      17.16500000      31.60600000     105.09400000 
H      17.03300000      34.49400000     104.79800000 
H      15.22500000      34.39200000     106.54000000 
H      14.82500000      33.74600000     104.99300000 
N      17.70400000      34.82100000     107.33200000 
C      18.69700000      35.11900000     108.32700000 
C      17.98700000      35.81200000     109.44100000 
O      17.53600000      36.95800000     109.28500000 
C      19.83700000      35.97300000     107.78000000 
C      21.11100000      35.72900000     108.52300000 
C      22.25200000      35.35000000     107.84100000 
C      21.16900000      35.81100000     109.90600000 
C      23.41700000      35.04600000     108.51400000 
C      22.32400000      35.49400000     110.58500000 
C      23.45000000      35.10900000     109.89100000 
H      16.95900000      35.47100000     107.16800000 
H      19.09700000      34.18600000     108.66600000 
H      19.97200000      35.71100000     106.74300000 
H      19.54000000      37.00900000     107.81400000 
H      22.21800000      35.28200000     106.77500000 
H      20.30900000      36.10900000     110.46100000 
H      24.28600000      34.75000000     107.96400000 
H      22.33900000      35.54000000     111.65500000 
H      24.34500000      34.85800000     110.41700000 
N      17.86100000      35.15000000     110.57900000 
C      17.26800000      35.77400000     111.72400000 
C      18.21200000      35.64500000     112.87500000 
O      18.92900000      34.64400000     113.04000000 
C      15.89000000      35.21900000     112.04600000 
C      15.88200000      33.72400000     112.24800000 
C      14.50500000      33.13700000     112.44100000 
O      14.45400000      31.88900000     112.65400000 
O      13.50600000      33.90700000     112.37400000 
H      18.28700000      34.26300000     110.68900000 
H      17.16900000      36.81600000     111.49500000 
H      15.51100000      35.72100000     112.92400000 
H      15.24100000      35.48000000     111.22500000 
H      16.32400000      33.23100000     111.39400000 
H      16.48200000      33.44600000     113.10100000 
N      18.19700000      36.69600000     113.67200000 
C      18.96700000      36.83100000     114.86400000 
C      18.03800000      37.26700000     115.95600000 
O      16.91400000      37.73100000     115.70200000 
C      20.04900000      37.88500000     114.61300000 
C      20.85300000      38.32900000     115.81800000 
C      21.95400000      39.28700000     115.40200000 
C      23.16100000      38.53200000     114.90000000 
N      24.01200000      39.43700000     114.07500000 
H      17.64900000      37.49200000     113.42100000 
H      19.41800000      35.88600000     115.11500000 
H      20.69700000      37.46900000     113.85800000 
H      19.56500000      38.74400000     114.17500000 
H      20.21000000      38.82600000     116.52200000 
H      21.28200000      37.47600000     116.31800000 
H      21.57700000      39.93600000     114.62300000 
H      22.24000000      39.91100000     116.23300000 
H      23.76600000      38.17400000     115.71400000 
H      22.88700000      37.70500000     114.27100000 
H      24.85600000      38.97900000     113.77600000 
H      23.51200000      39.73400000     113.25300000 
H      24.27200000      40.26000000     114.59400000 
N      17.51200000      41.24500000     114.67800000 
C      17.09300000      41.63400000     113.35500000 
C      16.68900000      40.41300000     112.56400000 
O      17.22600000      39.31600000     112.79000000 
C      18.24100000      42.32000000     112.61900000 
C      18.82100000      43.39000000     113.48500000 
O      18.12000000      44.32800000     113.89300000 
N      20.10900000      43.27100000     113.79900000 
H      18.22300000      40.55300000     114.74100000 
H      16.27100000      42.31600000     113.46100000 
H      18.98900000      41.59500000     112.35300000 
H      17.86800000      42.77400000     111.71600000 
H      20.53300000      43.94500000     114.39000000 
H      20.65600000      42.51100000     113.48200000 
N      15.78300000      40.57800000     111.60000000 
C      15.28700000      39.47000000     110.81800000 
C      15.28000000      39.82600000     109.35100000 
O      14.81700000      40.92800000     108.99000000 
C      13.89100000      39.12100000     111.28400000 
O      13.52100000      37.90100000     110.64000000 
H      15.35500000      41.46500000     111.46100000 
H      15.92900000      38.63100000     110.99100000 
H      13.90700000      39.00700000     112.35500000 
H      13.20000000      39.90800000     111.02400000 
H      13.01300000      37.32200000     111.19800000 
N      15.77100000      38.91700000     108.53100000 
C      15.99500000      39.12100000     107.12000000 
C      15.62800000      37.88200000     106.34100000 
O      15.61000000      36.76200000     106.88200000 
C      17.46900000      39.40200000     106.83400000 
C      18.07400000      40.52900000     107.66700000 
C      18.65700000      40.03500000     108.98500000 
C      19.17700000      41.19700000     106.85800000 
H      16.19900000      38.09400000     108.90800000 
H      15.39600000      39.94900000     106.79100000 
H      18.02800000      38.49600000     107.00200000 
H      17.54600000      39.64500000     105.78300000 
H      17.30000000      41.25500000     107.87300000 
H      19.06900000      40.86300000     109.54500000 
H      17.93300000      39.52900000     109.59900000 
H      19.45500000      39.33200000     108.78200000 
H      19.67600000      41.96100000     107.44100000 
H      19.91300000      40.45600000     106.57500000 
H      18.78500000      41.64600000     105.95800000 
N      15.40000000      38.04700000     105.04100000 
C      14.92900000      36.94300000     104.23200000 
C      15.40100000      37.11600000     102.81300000 
O      15.24600000      38.21200000     102.24100000 
C      13.39300000      36.89800000     104.25500000 
C      12.89900000      35.51700000     104.55900000 
O      13.22100000      34.62400000     103.71700000 
O      12.24000000      35.33300000     105.61600000 
H      15.21000000      38.96400000     104.68600000 
H      15.33000000      36.04000000     104.64700000 
H      13.04400000      37.59500000     104.99400000 
H      13.01100000      37.20200000     103.29600000 
N      15.95300000      36.07300000     102.19800000 
C      16.53000000      36.16000000     100.87700000 
C      15.91900000      35.15200000      99.92500000 
O      15.54700000      34.02800000     100.30800000 
C      18.05700000      35.90200000     100.87800000 
C      18.73700000      36.33200000     102.17200000 
C      18.69200000      36.57700000      99.67700000 
C      18.74400000      37.83000000     102.41300000 
H      16.11300000      35.21000000     102.67600000 
H      16.33800000      37.15300000     100.51400000 
H      18.19300000      34.83500000     100.80800000 
H      18.26700000      35.82700000     102.99700000 
H      19.75600000      35.97300000     102.12400000 
H      19.76700000      36.46300000      99.70900000 
H      18.33300000      36.16100000      98.74700000 
H      18.46600000      37.63500000      99.67800000 
H      19.16400000      38.05600000     103.38700000 
H      19.34100000      38.34300000     101.67200000 
H      17.74900000      38.24200000     102.37700000 
N      13.92000000      38.29300000      95.39000000 
C      12.99200000      38.83300000      96.34900000 
C      13.72000000      38.97600000      97.65200000 
O      14.49700000      38.08400000      98.04400000 
C      11.75300000      37.96400000      96.49000000 
H      14.46100000      37.48900000      95.64800000 
H      12.70300000      39.80600000      96.00200000 
H      11.09900000      38.36000000      97.25100000 
H      11.22100000      37.95900000      95.54700000 
H      12.01300000      36.95200000      96.74300000 
N      13.49300000      40.08900000      98.32600000 
C      14.19200000      40.38500000      99.54500000 
C      13.18100000      40.80500000     100.56300000 
O      12.24900000      41.55200000     100.25100000 
C      15.20100000      41.49100000      99.26800000 
C      16.04900000      41.82700000     100.45000000 
C      17.00700000      40.93000000     100.89300000 
C      15.89000000      43.02400000     101.12200000 
C      17.79300000      41.22700000     101.99000000 
C      16.67000000      43.32800000     102.22400000 
C      17.62300000      42.42700000     102.65800000 
H      12.92500000      40.82300000      97.95100000 
H      14.69600000      39.49600000      99.86900000 
H      15.81600000      41.14100000      98.45100000 
H      14.65700000      42.35300000      98.91900000 
H      17.13500000      40.00000000     100.38100000 
H      15.16100000      43.72400000     100.78100000 
H      18.53300000      40.53000000     102.31700000 
H      16.53700000      44.26000000     102.73000000 
H      18.23600000      42.65700000     103.50100000 
N      13.33400000      40.33800000     101.79200000 
C      12.41000000      40.73600000     102.81400000 
C      13.18300000      41.00700000     104.05700000 
O      14.27800000      40.45300000     104.28600000 
C      11.34600000      39.67500000     103.06900000 
C      10.61900000      39.29600000     101.80200000 
C       9.70400000      38.10600000     101.95300000 
O       9.23000000      37.85600000     103.09700000 
O       9.45200000      37.44700000     100.90000000 
H      14.06500000      39.69600000     102.02600000 
H      11.93100000      41.64200000     102.49100000 
H      11.82000000      38.80500000     103.48500000 
H      10.64900000      40.04200000     103.80600000 
H      10.02600000      40.13200000     101.45100000 
H      11.31800000      39.06800000     101.01700000 
N      12.63900000      41.84400000     104.91900000 
C      13.29200000      42.13900000     106.16300000 
C      12.26800000      42.71000000     107.08900000 
O      11.24800000      43.28800000     106.67000000 
C      14.44600000      43.10400000     105.95900000 
H      11.85500000      42.40000000     104.67600000 
H      13.66100000      41.22300000     106.58800000 
H      14.93800000      43.32600000     106.89500000 
H      15.15700000      42.65700000     105.28200000 
H      14.06800000      44.01000000     105.52000000 
N      12.54400000      42.55600000     108.37300000 
C      11.62300000      42.95900000     109.40700000 
C      12.45100000      43.14200000     110.64200000 
O      12.31000000      42.43100000     111.64500000 
C      10.52900000      41.93300000     109.58200000 
H      13.34700000      42.02000000     108.62800000 
H      11.20100000      43.91000000     109.13600000 
H       9.83300000      42.23000000     110.35000000 
H      10.00200000      41.82600000     108.64600000 
H      10.96100000      40.98300000     109.85200000 
N      13.38300000      44.09100000     110.57600000 
C      14.18000000      44.35300000     111.73200000 
C      13.37900000      45.15900000     112.71000000 
O      12.30100000      45.69300000     112.42000000 
C      15.51800000      45.03400000     111.42400000 
C      15.39000000      46.53700000     111.22500000 
C      16.18800000      44.36800000     110.23300000 
C      16.75000000      47.21200000     111.18500000 
H      13.38000000      44.73500000     109.81900000 
H      14.39000000      43.40400000     112.19300000 
H      16.13600000      44.87000000     112.29500000 
H      14.83300000      46.74400000     110.32400000 
H      14.83500000      46.96100000     112.04800000 
H      17.24100000      44.61100000     110.20900000 
H      16.09300000      43.29400000     110.27700000 
H      15.74400000      44.70500000     109.30900000 
H      16.64800000      48.28500000     111.14200000 
H      17.31400000      46.96100000     112.07500000 
H      17.32300000      46.89600000     110.32500000 
N      12.81300000      49.28300000     111.15000000 
C      12.47500000      49.59600000     109.78200000 
C      12.14900000      48.32200000     109.05800000 
O      12.81500000      47.28500000     109.21900000 
C      13.58600000      50.38400000     109.06900000 
C      14.95800000      49.78300000     109.30900000 
C      13.30300000      50.50400000     107.57800000 
H      13.40000000      48.50000000     111.32100000 
H      11.59700000      50.21500000     109.80600000 
H      13.56200000      51.37300000     109.50600000 
H      15.69900000      50.31600000     108.72900000 
H      15.23200000      49.85100000     110.34900000 
H      14.98000000      48.74500000     109.01900000 
H      14.00700000      51.18500000     107.12500000 
H      13.40700000      49.54400000     107.08800000 
H      12.30600000      50.87300000     107.38700000 
N      11.10400000      48.39700000     108.24100000 
C      10.57700000      47.28700000     107.47800000 
C      10.77300000      47.60600000     106.01500000 
O      10.20400000      48.59000000     105.51400000 
C       9.11700000      47.12100000     107.84700000 
C       8.38200000      46.04400000     107.07700000 
C       7.09100000      45.66900000     107.79100000 
C       6.08600000      44.99000000     106.89000000 
N       5.29100000      46.02600000     106.15700000 
H      10.60000000      49.25000000     108.18000000 
H      11.13300000      46.40800000     107.74600000 
H       9.09000000      46.89600000     108.90500000 
H       8.61600000      48.06700000     107.70900000 
H       8.17700000      46.39300000     106.07400000 
H       9.00300000      45.16400000     106.98300000 
H       7.32300000      45.01600000     108.61900000 
H       6.63500000      46.55400000     108.21400000 
H       6.56500000      44.37700000     106.14700000 
H       5.37500000      44.39700000     107.43600000 
H       4.70500000      45.61000000     105.45400000 
H       4.69800000      46.53000000     106.79400000 
H       5.89100000      46.69500000     105.70200000 
N      11.59100000      46.80700000     105.33200000 
C      11.99700000      47.03700000     103.96200000 
C      11.79200000      45.74500000     103.21200000 
O      12.21600000      44.67800000     103.68300000 
C      13.46000000      47.51500000     103.87300000 
C      14.34900000      46.87400000     104.92100000 
C      14.02900000      47.25300000     102.48700000 
H      11.99600000      46.02800000     105.79100000 
H      11.35500000      47.79600000     103.55700000 
H      13.43900000      48.58100000     104.04900000 
H      15.37200000      47.18800000     104.77600000 
H      14.05300000      47.14900000     105.92400000 
H      14.31300000      45.80100000     104.83500000 
H      14.99700000      47.72000000     102.38700000 
H      14.15700000      46.19100000     102.33400000 
H      13.38300000      47.63200000     101.70500000 
N      11.13700000      45.79300000     102.05000000 
C      10.69400000      44.55700000     101.42000000 
C      10.45800000      44.73000000      99.93100000 
O       9.30200000      44.74700000      99.47600000 
C       9.44800000      44.07000000     102.12600000 
H      10.75000000      46.65400000     101.74000000 
H      11.48300000      43.83900000     101.54100000 
H       9.11100000      43.12500000     101.72800000 
H       9.67100000      43.94800000     103.17600000 
H       8.66100000      44.79200000     102.01900000 
N      11.52600000      44.80900000      99.14400000 
C      11.44400000      44.94700000      97.70700000 
C      11.68000000      43.63500000      96.98600000 
O      12.35200000      42.72100000      97.47800000 
C      12.62600000      45.87800000      97.43900000 
C      13.69200000      45.33500000      98.38400000 
C      12.91200000      44.86000000      99.60900000 
H      10.49900000      45.36300000      97.42100000 
H      12.93000000      45.88500000      96.40700000 
H      12.33100000      46.87500000      97.72500000 
H      14.19500000      44.50700000      97.92700000 
H      14.42700000      46.07900000      98.64800000 
H      13.20800000      43.88100000      99.93300000 
H      12.99400000      45.55000000     100.42700000 
N      11.20500000      43.54700000      95.74000000 
C      11.50600000      42.42400000      94.88800000 
C      11.60200000      42.92700000      93.47600000 
O      10.98900000      43.95700000      93.14200000 
C      10.44400000      41.33800000      94.98100000 
C       9.06600000      41.87800000      94.66500000 
C       7.99900000      40.85100000      94.86100000 
O       8.23300000      39.63800000      94.79500000 
N       6.77000000      41.32200000      95.09100000 
H      10.68500000      44.29200000      95.33900000 
H      12.45200000      42.01200000      95.18600000 
H      10.69700000      40.53700000      94.30700000 
H      10.46300000      40.94200000      95.98100000 
H       8.85200000      42.73400000      95.28200000 
H       9.01200000      42.21200000      93.63800000 
H       6.58800000      42.29700000      95.15200000 
H       6.01400000      40.69200000      95.20400000 
H      16.62425093      32.42239706     103.93569800 
H      18.31843183      37.18725062     116.91255529 
H      17.83445718      41.96309898     115.11429717 
H      15.80506431      35.38224652      98.95856056 
H      13.47455206      38.04181670      94.64940356 
H      13.71094153      45.28450911     113.64491298 
H      13.24375629      49.98108979     111.52029672 
H      12.15777798      42.43429959      92.80640524 
