108
Properties=species:S:1:pos:R:3 pbc="F F F"
N      52.70900000      57.47800000      50.07400000 
C      51.51500000      56.71600000      50.34800000 
C      51.83000000      55.27500000      50.04500000 
O      52.89700000      54.96100000      49.49800000 
C      50.32700000      57.25900000      49.55800000 
C      50.59100000      57.39100000      48.07100000 
C      50.44800000      58.79400000      47.51400000 
O      50.29500000      59.76400000      48.30600000 
O      50.51700000      58.89800000      46.25200000 
H      53.40000000      57.03600000      49.52100000 
H      51.28700000      56.78500000      51.39900000 
H      49.46300000      56.63900000      49.75200000 
H      50.12200000      58.23900000      49.95100000 
H      51.60000000      57.08100000      47.83500000 
H      49.94000000      56.75600000      47.49000000 
N      50.93300000      54.36000000      50.42000000 
C      51.21200000      52.94500000      50.33800000 
C      49.93400000      52.22200000      50.04000000 
O      48.85200000      52.81700000      50.15100000 
C      51.82900000      52.41200000      51.63800000 
C      50.83300000      52.13400000      52.72800000 
C      50.07100000      53.13800000      53.30600000 
C      50.65200000      50.83400000      53.16400000 
C      49.15000000      52.84300000      54.29600000 
C      49.74500000      50.53500000      54.15900000 
C      48.99300000      51.54200000      54.73000000 
H      50.04800000      54.62600000      50.76900000 
H      51.91200000      52.79100000      49.53500000 
H      52.35500000      51.49800000      51.41000000 
H      52.56500000      53.13400000      51.95800000 
H      50.18100000      54.14400000      52.98200000 
H      51.23000000      50.05100000      52.72200000 
H      48.55400000      53.62600000      54.71700000 
H      49.63100000      49.52400000      54.48800000 
H      48.29200000      51.31800000      55.50600000 
N      44.73700000      52.80000000      51.34400000 
C      44.44200000      53.65900000      52.46900000 
C      45.51400000      54.71200000      52.53700000 
O      46.69900000      54.40300000      52.35500000 
C      44.43300000      52.86000000      53.76100000 
H      45.64700000      52.40700000      51.31500000 
H      43.48100000      54.10900000      52.29800000 
H      44.21300000      53.50100000      54.59900000 
H      43.67900000      52.09200000      53.70100000 
H      45.39400000      52.39600000      53.91400000 
N      45.14700000      55.96100000      52.81800000 
C      46.11800000      57.02700000      52.83800000 
C      46.83700000      57.07300000      54.16000000 
O      48.07300000      57.05500000      54.22600000 
C      45.42400000      58.34300000      52.54200000 
C      46.39100000      59.47200000      52.39600000 
C      47.22600000      59.53700000      51.29000000 
C      46.46500000      60.47600000      53.34400000 
C      48.09700000      60.58400000      51.11500000 
C      47.33900000      61.53800000      53.18300000 
C      48.13900000      61.59100000      52.06400000 
O      49.00100000      62.63800000      51.83600000 
H      44.18700000      56.18200000      52.93000000 
H      46.86300000      56.82500000      52.09500000 
H      44.86900000      58.20500000      51.62900000 
H      44.71000000      58.56000000      53.31900000 
H      47.18100000      58.75800000      50.55400000 
H      45.83800000      60.43400000      54.20600000 
H      48.73600000      60.63400000      50.25800000 
H      47.38900000      62.31800000      53.91500000 
H      48.92800000      63.34200000      52.46900000 
N      46.05700000      57.14400000      55.23900000 
C      46.60100000      57.20500000      56.57000000 
C      45.80500000      56.34000000      57.50600000 
O      45.92600000      56.46900000      58.73200000 
C      46.72700000      58.63200000      57.10900000 
C      48.09500000      58.85000000      57.71900000 
C      48.18200000      60.14600000      58.48500000 
N      49.39600000      60.12500000      59.28900000 
C      49.65500000      60.98000000      60.26100000 
N      48.86200000      62.02100000      60.46100000 
N      50.70500000      60.78800000      61.04700000 
H      45.07900000      57.27600000      55.12100000 
H      47.58800000      56.77600000      56.51300000 
H      46.56200000      59.32300000      56.30000000 
H      45.96700000      58.81000000      57.85500000 
H      48.30700000      58.03600000      58.40000000 
H      48.84500000      58.82900000      56.94100000 
H      48.19000000      60.99600000      57.81600000 
H      47.33300000      60.24000000      59.14400000 
H      50.03400000      59.38100000      59.13800000 
H      48.10700000      62.22300000      59.85300000 
H      49.02500000      62.63900000      61.22100000 
H      51.27200000      59.97800000      60.95000000 
H      50.93400000      61.44000000      61.75900000 
N      44.97800000      55.45600000      56.96000000 
C      44.11200000      54.65000000      57.76300000 
C      44.78000000      53.37000000      58.19800000 
O      45.91600000      53.05200000      57.83500000 
C      42.80600000      54.35700000      57.02200000 
C      41.65100000      54.32500000      57.97500000 
O      41.36400000      55.33300000      58.64000000 
N      40.99800000      53.17800000      58.09600000 
H      45.00700000      55.31300000      55.98100000 
H      43.88900000      55.21700000      58.65200000 
H      42.62200000      55.17100000      56.34100000 
H      42.87600000      53.44400000      56.45500000 
H      40.23000000      53.10900000      58.72400000 
H      41.24300000      52.36900000      57.57500000 
H      52.48980833      58.23227055      49.63464713 
H      49.95651046      51.26428051      49.75317835 
H      44.16779570      52.10286511      51.34093098 
H      44.30047758      52.73739796      58.80617177 
