 545 
 
N               178.4327371707       66.3241775783       90.2808860008
C               179.4420334807       66.5655705658       91.2887322148
C               180.8254134912       66.4918736843       90.6344663818
O               181.0575977237       65.7466286913       89.6949611691
C               179.3078914988       65.5250659844       92.4210419611
C               180.3635884175       65.7501831078       93.4998671944
C               177.9104984783       65.5980342668       93.0353425322
H               178.3859252947       65.3826978726       89.9218402715
H               179.2783710994       67.5737376352       91.6817584782
H               179.4597519513       64.5327099701       91.9824874439
H               180.2004886968       65.0627454076       94.3258871339
H               181.3689490889       65.5790284888       93.1211019873
H               180.3045317493       66.7652426722       93.8865577445
H               177.8000129505       64.8304855317       93.7965317117
H               177.7654763529       66.5664896517       93.5068328982
H               177.1296953622       65.4570715267       92.2914786225
N               185.2456525349       68.0576069994       91.6354199793
C               186.1637629771       68.4610656201       92.6726151649
C               187.5294386999       68.7420304901       92.0481084098
O               187.8868523931       68.2284373343       90.9990298061
C               186.2983461437       67.3558777582       93.7310003975
C               186.8156554477       66.0615637859       93.0920267797
O               188.0087170394       65.7418540273       93.3379721164
O               186.0472467846       65.3803241773       92.3932040742
H               185.6590300812       67.5260381810       90.8813992192
H               185.7742749986       69.3700044179       93.1440909768
H               186.9819193080       67.6720876638       94.5130292351
H               185.3136499566       67.1651078336       94.1622490546
N               197.3673644928       65.0285648846      106.6220230666
C               195.9852295190       64.6842714915      106.9033418941
C               195.8148233967       63.8027950956      108.1345259699
O               194.7606988137       63.2080499975      108.3319876122
C               195.2707577289       64.0068571024      105.7201444490
C               195.3714988512       64.7704352588      104.3987815916
C               194.4860797603       64.0898814328      103.3547378984
C               194.9404358983       66.2234643740      104.5613079707
H               197.5619506195       66.0213796601      106.5585920500
H               195.4767897641       65.6257475123      107.1388735483
H               195.6903545634       63.0104491752      105.5983186453
H               194.2215553245       63.9103730614      106.0011273529
H               196.4070779885       64.7551460409      104.0473514230
H               194.5450114873       64.6289097191      102.4140440172
H               194.7952083736       63.0666173216      103.1653300355
H               193.4484741861       64.0871924434      103.6804193340
H               194.9822410960       66.7226562872      103.6002830483
H               193.9220104271       66.2730213079      104.9381677739
H               195.5910996440       66.7714877677      105.2374549858
N               192.3110501214       63.4861448487      109.7753630000
C               191.2983592047       62.9428002933      108.8933812721
C               191.5322150614       61.4481239009      108.6638369500
O               190.6176915539       60.6389564802      108.7561528112
C               191.3238846164       63.7041309787      107.5756111933
H               192.9437405965       64.1658464156      109.3809621666
H               190.3202054126       63.0400609944      109.3807542905
H               190.5653406216       63.3125078977      106.9055825455
H               191.1330979511       64.7598106837      107.7587700206
H               192.3006647077       63.5991965771      107.1113505326
N               189.1328428840       58.2966589295      109.4010014346
C               188.7688575700       57.3595913619      108.3584824550
C               189.1208947481       55.9288743357      108.7680847335
O               188.3456794652       54.9954371159      108.5818486347
C               189.4897515373       57.7106093650      107.0576938027
C               188.9912975373       58.9990737685      106.3890078011
C               189.8715264046       59.2825835255      105.1738387999
C               187.5291169599       58.8962705371      105.9629830212
H               189.7627981061       59.0564708225      109.1598982558
H               187.6804594106       57.3786000251      108.2205737530
H               190.5531402655       57.8025458412      107.2872110576
H               189.3732759729       56.8776445771      106.3622536100
H               189.0943655670       59.8237142731      107.0986623018
H               189.5097929918       60.1569396119      104.6416274396
H               190.8977730408       59.4626938894      105.4826031464
H               189.8530586850       58.4313374427      104.4978329473
H               187.2409821960       59.7754831141      105.3928714506
H               187.3767499912       58.0174225734      105.3416491734
H               186.8694078943       58.8262431312      106.8227644027
N               187.7284955154       52.7361810283      106.8071484314
C               187.9307359674       53.1537078786      105.4375152788
C               189.3750167769       52.8577926042      105.0115841706
O               190.3359650221       53.1655929365      105.6945846949
C               187.6184569021       54.6535031036      105.3097082065
C               188.0660206467       55.2002010758      103.9583603389
C               186.1259421784       54.8915986097      105.5222112258
H               187.9394979737       53.4038973551      107.5421625005
H               187.2437279445       52.5622750871      104.8217306639
H               188.1734234215       55.1541525481      106.1077361606
H               187.7763253927       56.2441541367      103.8754744950
H               189.1462325622       55.1386991571      103.8461729391
H               187.5853852486       54.6438475081      103.1569353986
H               185.9115794505       55.9568797835      105.5365058940
H               185.5491040422       54.4352470943      104.7210848701
H               185.7991600440       54.4597058892      106.4654493764
N               190.4585641307       53.4346256030      101.5082374106
C               190.8712496672       54.1973729280      100.3505314074
C               191.6789799848       55.4454457618      100.7302606334
O               191.3766895167       56.1588222943      101.6746710193
H               189.5976203329       53.6800307630      101.9735517531
H               191.4775208547       53.5413150469       99.7230851377
H               189.9778203419       54.5146758239       99.8100467080
N               192.7031464002       55.7055304466       99.9104977709
C               193.5639010934       56.8538955403      100.1049090344
C               192.6990516342       58.1275507560      100.0772891207
O               191.7244954946       58.2219921460       99.3492065611
C               194.6122805217       56.8906334122       98.9753778362
O               195.1001106394       55.5689101440       98.8339288917
C               195.7343040730       57.8758156105       99.2937465532
H               193.0258592932       55.0248901005       99.2393714030
H               194.0674385133       56.7578796483      101.0749039789
H               194.0977860068       57.1923775371       98.0478134473
H               195.8748034830       55.5845410625       98.2580255844
H               196.4431965110       57.9049133853       98.4697283941
H               195.3380404211       58.8762341024       99.4419164326
H               196.2573151046       57.5493347346      100.1890103721
N               193.1496032255       59.1064550698      100.8695639660
C               192.4456585862       60.3501037534      101.1160434530
C               193.2578994846       61.5525154487      100.6109524273
O               194.4555170720       61.6577643893      100.8300178633
C               192.2457388814       60.5094175572      102.6230389691
H               193.9526741052       58.9381652340      101.4570949577
H               191.4905105677       60.2934654172      100.5927843633
H               191.6441149292       61.3867978260      102.8295991966
H               191.7360646917       59.6340632507      103.0160805717
H               193.2108659627       60.6157111653      103.1122727263
N               192.5281158539       62.4818311590       99.9792928855
C               193.0717300962       63.7376567757       99.5094154085
C               192.1342130523       64.8826518789       99.9286945745
O               191.0785176295       64.6465806900      100.4996644216
C               193.2374975152       63.7418696880       97.9791509224
O               191.9680423842       63.9202984934       97.3897533645
H               191.5537579559       62.2857860563       99.7685861609
H               194.0546124393       63.8512288012       99.9805558984
H               193.9129492141       64.5551158640       97.6837330593
H               193.6804232252       62.7844855642       97.6765180827
H               192.0675447079       63.9212566646       96.4312307318
N               192.5585896889       66.1241759342       99.6613116743
C               191.7443394691       67.2950873803       99.9184228385
C               191.3647198734       67.9481476251       98.5944973662
O               192.1979900071       68.1185823081       97.7059236014
C               192.4800698635       68.3563481683      100.7636880632
C               191.4829127932       69.4084845920      101.2402030497
C               193.1703530282       67.7023651631      101.9526246685
H               193.3964422067       66.2795732837       99.1212973004
H               190.8500562825       66.9508524324      100.4448988530
H               193.2342533787       68.8415752221      100.1344237735
H               191.9987219503       70.1619888161      101.8277065869
H               190.9990525879       69.8985139312      100.3995841274
H               190.7140621834       68.9484038390      101.8565743267
H               193.6300196859       68.4652951562      102.5744048169
H               192.4516466909       67.1441062623      102.5482314696
H               193.9412606042       67.0147240210      101.6163766335
N               190.1009855248       68.3610575721       98.5242403021
C               189.5482568194       68.9693637431       97.3419983651
C               188.5758703398       70.0879591005       97.7059758387
O               187.9660405622       70.1196194505       98.7662828644
C               188.8094136998       67.9316069990       96.4635941853
C               189.7684691806       66.8543118644       95.9676380259
C               187.6334887582       67.3034525018       97.2053469355
H               189.4482304340       68.1280166640       99.2651481880
H               190.3749149742       69.3825968803       96.7579368051
H               188.4424102237       68.4874862275       95.5944709382
H               189.2883730433       66.2779447200       95.1819123575
H               190.6636384539       67.3084884529       95.5535581548
H               190.0606304589       66.1882296346       96.7761566403
H               187.1485416841       66.5588358440       96.5794955264
H               187.9737819938       66.8199989514       98.1183032173
H               186.8896648004       68.0531918199       97.4648028149
N               185.1576622857       71.4427293720       96.2056547694
C               184.0740380591       70.8486529852       95.4487520966
C               183.5054271182       71.8501981959       94.4328165515
O               183.6431827599       73.0578492111       94.5847275601
C               182.9461033732       70.4270414710       96.3936018259
C               183.3842214538       69.3942485723       97.4264490960
S               184.0783510629       67.8644434945       96.6994268363
C               182.6089070869       67.2447600217       95.8359328343
H               184.9584899602       71.7824051380       97.1397150235
H               184.4604194748       69.9706230557       94.9178892141
H               182.5942203874       71.3159890111       96.9225793381
H               182.1259512256       70.0288299418       95.7941750777
H               184.1744499379       69.7854513767       98.0660299456
H               182.5379004488       69.0922062153       98.0424587296
H               182.7727234357       66.1852792786       95.6649370736
H               181.7354103939       67.3908812533       96.4627979817
H               182.5056993953       67.7547257687       94.8823986422
N               185.7460421229       72.5474526726      101.3846172964
C               186.6572190151       71.4312189891      101.3139427186
C               185.9369786095       70.1197657732      101.6179115705
O               184.9834706222       70.0367825764      102.3867793309
C               187.7909839494       71.5859773684      102.3321576080
C               188.6031424890       72.8771383461      102.1707813576
C               189.6366985248       72.9537319236      103.2931962844
C               189.2952524306       72.9471910918      100.8125839995
H               185.5506887410       72.9000608038      102.3095158508
H               187.0491657831       71.3782966520      100.2958710647
H               187.3541004648       71.5583650709      103.3349571164
H               188.4619517158       70.7301781902      102.2314416111
H               187.9262864852       73.7315972203      102.2658984763
H               190.1795655605       73.8953156586      103.2601061039
H               189.1583797902       72.8636663465      104.2666719614
H               190.3549660796       72.1424980769      103.1963298060
H               189.9203135724       73.8344502855      100.7631038147
H               189.9266226385       72.0741138141      100.6683292075
H               188.5692298035       72.9879813080      100.0063562490
N               186.4707119942       69.0712901628      100.9899693491
C               186.1065141686       67.7115231836      101.2783822178
C               187.3794586269       66.8771050551      101.2931697425
O               188.3431696427       67.1523897319      100.5862592305
C               185.1462587109       67.1267908785      100.2368508677
H               187.2117668365       69.2032956038      100.3108428401
H               185.6223804734       67.6865512159      102.2580835356
H               184.9208009026       66.0957207264      100.4961220201
H               184.2228321163       67.6994048590      100.2355169931
H               185.5842757511       67.1614590077       99.2427797838
N               187.3430307794       65.8508895707      102.1433354852
C               188.2930375456       64.7632098172      102.0408149462
C               187.6998789067       63.7814563325      101.0261566045
O               186.5458009496       63.3655987591      101.1304986005
C               188.5806124193       64.1199699502      103.4000849029
C               189.4645958517       62.8944500685      103.1924530604
C               189.2865100894       65.1309895258      104.2984924017
H               186.4679375798       65.6730988059      102.6297011473
H               189.2199825454       65.1727899973      101.6330207804
H               187.6299187173       63.8186820547      103.8529354624
H               189.7726831721       62.4873948597      104.1518499105
H               188.9422867345       62.1183245393      102.6372948232
H               190.3471301933       63.1827779324      102.6252800972
H               189.4002022014       64.7305455747      105.3008809692
H               190.2714343601       65.3492819815      103.8944661893
H               188.7209993174       66.0559596191      104.3508553251
N               188.4977601941       63.5209821899       99.9950648540
C               188.1388458350       62.6539478931       98.8928173720
C               188.7739307121       61.2845619410       99.1357168871
O               189.9617461631       61.1832767581       99.4142376233
C               188.6582153571       63.2345401002       97.5783304725
C               188.1406051658       62.4517507648       96.3745231027
C               188.6741656788       63.0573309666       95.0800511714
C               187.9666640275       62.4999508021       93.8521363696
N               188.3904830211       63.2634345175       92.6533154945
H               189.4645782345       63.8376279089      100.0329418095
H               187.0509480656       62.5573415942       98.8651645169
H               188.3206207699       64.2691312147       97.5026976865
H               189.7501116675       63.2289522307       97.5962880735
H               188.4331283319       61.4026263763       96.4384160945
H               187.0482399780       62.4694700623       96.3723015086
H               188.5183809266       64.1361784365       95.1087096657
H               189.7449770254       62.8663216045       95.0112860955
H               188.1709836742       61.4349995036       93.7356756212
H               186.8874293549       62.6066985820       93.9692965038
H               187.8010139900       63.0353854969       91.8517485939
H               188.2683776327       64.3600678214       92.8803500311
H               189.3705851661       63.0753035755       92.4370899374
N               187.9298354715       60.2568789520       99.0515522974
C               188.2981226647       58.8718458209       99.2782591763
C               187.7937640456       58.1138802697       98.0511055262
O               186.6299015052       57.7403893478       97.9540605896
C               187.6393188241       58.3266593054      100.5557272202
C               188.0237563142       56.8626473043      100.7399613703
C               188.0536575319       59.1528190724      101.7672570600
H               186.9692088319       60.4325574856       98.7723843686
H               189.3892390376       58.8147853992       99.3586494853
H               186.5546333144       58.3961940121      100.4114048125
H               187.4721772952       56.4375958624      101.5714497217
H               187.7849746138       56.2913312178       99.8451072607
H               189.0883751085       56.7744083745      100.9454877731
H               187.5905430895       58.7606331861      102.6676187681
H               189.1338000900       59.1121071029      101.8846044496
H               187.7515075353       60.1904038829      101.6438568557
N               188.6983326740       57.9400489029       97.0798083932
C               188.3217950152       57.4004814086       95.7852079194
C               187.2315431930       58.2904824058       95.1651164933
O               187.4757822624       59.4342049217       94.8080275666
H               189.6368813027       58.2834666073       97.2181129309
H               189.1960324817       57.4033176587       95.1376363094
H               187.9359801165       56.3835130213       95.8951704209
N               186.0196501343       57.7309910468       95.1336131398
C               184.8665115847       58.3400086314       94.5154881608
C               184.0166171577       59.1558368833       95.4964406177
O               183.0822709211       59.8451210482       95.1005425389
C               183.9503356294       57.2384828408       93.9692017578
C               184.7785053228       56.1746772904       93.1822756738
O               185.5090307163       55.4315296756       93.8759037098
O               184.6613421558       56.1545029301       91.9475151527
H               185.9361082653       56.7173075318       95.2054317518
H               185.1898214998       59.0072283133       93.7045261091
H               183.4602113851       56.7406877217       94.8117288262
H               183.1939764257       57.6768753095       93.3194433491
N               184.3442481896       59.0205559423       96.7792909791
C               183.5358932381       59.5368544335       97.8524971334
C               184.1435270331       60.8277488229       98.4047727689
O               185.3172654656       61.1270063414       98.2378732781
C               183.4195826546       58.5026173343       98.9748564986
C               182.4074642581       57.3728453489       98.6010648779
O               182.4604683703       56.8902164926       97.4673203746
O               181.6043520619       57.0369282375       99.5087471600
H               185.1250425048       58.4231643678       97.0312721605
H               182.5495338039       59.7605432733       97.4238751130
H               184.3972128824       58.0362742297       99.1156274845
H               183.1153759346       58.9909120173       99.9007527429
N               183.3018229467       61.5624975585       99.1459288736
C               183.6498285506       62.8576190086       99.6872071294
C               183.0174542875       63.0213710766      101.0717695097
O               181.8714792781       62.6413352228      101.2871632413
C               183.0805694601       63.9904043039       98.8013664008
C               183.4648023954       63.8383428838       97.3574845706
C               182.6448077898       63.1315117965       96.4842522244
C               184.6326694578       64.3998396377       96.8617560873
C               182.9604000565       63.0118168081       95.1474797212
C               184.9547305392       64.2941309371       95.5209411913
C               184.1167697641       63.6073507159       94.6460662465
O               184.3744014928       63.4834597811       93.3183158754
H               182.3233213475       61.3146944562       99.1929992025
H               184.7391994467       62.9128276268       99.7365951662
H               181.9919394079       63.9597758091       98.8882923558
H               183.4452600854       64.9425195477       99.1876304946
H               181.7344706268       62.6734654685       96.8445957522
H               185.2909053657       64.9400462263       97.5253636995
H               182.3339062393       62.4470359302       94.4755242015
H               185.8570359278       64.7512194590       95.1428793885
H               185.0353339046       64.1484261731       93.0122016670
N               183.7783737986       63.6672336603      101.9538087537
C               183.3529005643       64.0238119736      103.2919219855
C               183.6085016319       65.5147240433      103.5203275333
O               184.7188807098       65.9905490193      103.3039037791
C               184.1666111108       63.2593627880      104.3524383064
C               183.9006013463       61.7844973908      104.3192489708
C               184.5751252775       60.9558303290      103.4284152858
C               182.9664664423       61.2247017164      105.1810530275
C               184.3297593003       59.5961887146      103.4056125094
C               182.7229587459       59.8637631761      105.1754282615
C               183.4112242758       59.0422840174      104.2911928543
O               183.1843858815       57.6953378418      104.2341077459
H               184.7665811515       63.7984938676      101.7441197418
H               182.2887514213       63.8078759966      103.3931173830
H               185.2243077798       63.4610022901      104.1699198544
H               183.8886237522       63.6690331120      105.3230243109
H               185.3029861414       61.3751280125      102.7495499766
H               182.4228765307       61.8596608918      105.8657138115
H               184.8543876735       58.9514252234      102.7180445611
H               182.0001830681       59.4475881586      105.8626124129
H               182.6740475568       57.4224388709      105.0093881444
N               182.5662901291       66.2526172068      103.9193122771
C               182.7854109172       67.6473148663      104.2505383935
C               183.9308456333       67.7648477986      105.2652103655
O               184.0095622636       67.0155551378      106.2343192724
C               181.4980978883       68.2519561925      104.8205886735
O               181.0849706232       67.5109060626      105.9367972156
H               181.7910594055       65.7921160503      104.3837350443
H               183.0693046394       68.1945180080      103.3437949983
H               181.6907759760       69.3012302821      105.0852953084
H               180.7244823632       68.2293083215      104.0379381974
H               180.2836650051       67.9376586263      106.3369650404
N               184.8204161912       68.7256261864      105.0042027524
C               185.9595854020       68.9363377481      105.8668621294
C               186.1530242047       70.4274563422      106.1076513270
O               185.9133093938       71.2716102928      105.2555019629
C               187.2216453782       68.3341268375      105.2506242361
H               184.7645210796       69.3138333562      104.1758904879
H               185.7500190690       68.4469452537      106.8221294123
H               188.0490423693       68.4318583123      105.9467110211
H               187.0464129512       67.2792758887      105.0565299482
H               187.4607410549       68.8409532392      104.3176881499
N               193.1270013540       70.0001198837      109.3031780711
C               191.8970749190       69.6775599052      108.6104273487
C               191.2470509663       68.4504587574      109.2336140691
O               191.7909141582       67.3597037502      109.3456549805
C               192.1363281498       69.5218345309      107.0918193059
C               190.8077160124       69.2029328008      106.3988229747
C               193.2100202156       68.4816654672      106.8009856538
C               190.8880824250       69.3412278917      104.8833703950
H               193.6403904198       69.2550895734      109.7753281154
H               191.2235526751       70.5306848385      108.7587513572
H               192.4985700766       70.4973606532      106.7437237399
H               190.5070577840       68.1876992599      106.6684923981
H               190.0469464084       69.8853372504      106.7870212249
H               193.3764132345       68.3990056389      105.7323876394
H               194.1504992045       68.7700093389      107.2666849074
H               192.9179905879       67.5145942285      107.2020381582
H               189.9012300008       69.2264912816      104.4455227872
H               191.2736306989       70.3232277986      104.6231732839
H               191.5455224561       68.5881780030      104.4621313925
N               187.4567973868       66.1568353517      109.5476150040
C               186.2071639188       65.8077124029      108.8965280988
C               185.0609867360       66.1973081653      109.8313840516
O               185.1696345386       66.1163413016      111.0508528025
C               186.1764343636       64.3167109116      108.5247302637
C               187.2817747951       64.0288369732      107.5006820053
C               184.8005271711       63.9638889190      107.9701519157
C               187.5210816503       62.5395002085      107.2790355482
H               187.6612570077       65.6392229820      110.3908687146
H               186.1357009929       66.4108588875      107.9870029757
H               186.3614896522       63.7357475075      109.4355235354
H               187.0042195491       64.5069397351      106.5593689731
H               188.2038008755       64.4962384169      107.8499559515
H               184.8075262904       62.9552386160      107.5686868068
H               184.0386135073       64.0289492448      108.7430444742
H               184.5341095141       64.6603765616      107.1775612047
H               188.3540258015       62.3926760953      106.5974437995
H               187.7546011846       62.0467195578      108.2194986324
H               186.6471929748       62.0623488093      106.8457608371
N               180.9602685517       60.4526354659      110.5690595184
C               181.5014382614       61.4310653725      109.6563146083
C               180.4557140184       61.8166795891      108.6058710454
O               179.5591924231       61.0582031716      108.2709156412
C               182.7381322415       60.8456605638      108.9610437455
C               183.7841591140       60.2718331750      109.9282217158
C               184.9644260211       59.7224486299      109.1270987469
C               184.2566848108       61.3155666050      110.9362946512
H               180.9197987076       59.5023631764      110.2336405699
H               181.7549489415       62.3234088601      110.2338691491
H               182.4056241467       60.0490585014      108.2926583540
H               183.1914939858       61.6328025644      108.3611336137
H               183.3337331818       59.4461018947      110.4884633621
H               185.6712429237       59.2233953243      109.7865997378
H               184.6208497045       59.0015353603      108.3902054361
H               185.4805333797       60.5305129804      108.6161884799
H               185.0554808097       60.9081283304      111.5518256783
H               184.6247502132       62.2051301230      110.4310396502
H               183.4493213182       61.6130357982      111.6021468981
N               180.6697441147       63.0145124587      108.0352714429
C               179.6590539342       63.6397797760      107.1988488932
C               180.0469725123       63.4899981722      105.7172869152
O               180.8326707471       64.2475266142      105.1643495185
C               179.5209460366       65.1212986205      107.5272572872
C               179.1349650502       65.3791313164      108.9719419149
O               179.0586662124       64.4942534639      109.8123024360
N               178.8683680766       66.6621779461      109.2487673302
H               181.3329511153       63.6369982098      108.4791594360
H               178.7157536805       63.1098273059      107.3805988264
H               180.4662028266       65.6246881441      107.3109891909
H               178.7699866965       65.5702865363      106.8773564040
H               178.6471033323       66.9174963628      110.2011329258
H               178.9210528183       67.3887750120      108.5403230272
N               179.5099555529       62.4240846782      105.1169559739
C               179.6362275810       62.2111827337      103.6866109522
C               178.7685331120       63.2390163733      102.9598516803
O               177.8714921202       63.8445995925      103.5386742994
C               179.2132565950       60.7674363041      103.3867865302
C               179.4992387543       60.3223336401      101.9526314402
C               179.1866860055       58.8390568633      101.7213831939
C               180.0796207624       57.8677991064      102.4848133389
N               181.4688376939       57.9361213075      101.9775112766
H               178.7000636835       61.9979334394      105.5540325522
H               180.6804842329       62.3645678779      103.3956652013
H               179.7654588076       60.1484113746      104.0939692931
H               178.1499817627       60.6654408376      103.6047293658
H               178.8743030197       60.8907774894      101.2637150979
H               180.5368401685       60.5566599195      101.7066028316
H               178.1525311574       58.6560282685      102.0093645924
H               179.2769106502       58.6230018136      100.6559215072
H               180.0722144087       58.0989464647      103.5501676698
H               179.7175591704       56.8522361687      102.3327435856
H               181.5268388191       57.5695283960      100.9524464644
H               181.7834567051       58.9109941748      101.9824011358
H               182.1177668574       57.3938991538      102.5686671072
N               179.0291712464       63.4254691837      101.6637146737
C               178.1739101354       64.2529613164      100.8346752366
C               177.2850866677       63.3504263510       99.9654491467
O               177.6661441495       62.2687367948       99.5471842011
C               178.9879434967       65.1887264464       99.9376925281
C               179.7669050106       66.2560655551      100.7175337173
C               180.7087249496       67.0021241944       99.7736633318
C               178.8310424642       67.2517104839      101.4011995761
H               179.8592634814       63.0157335931      101.2506589160
H               177.5240045434       64.8277036066      101.5002018733
H               179.6896510211       64.5814556297       99.3623347704
H               178.3091286467       65.6732999234       99.2325950579
H               180.3621992072       65.7599101643      101.4937217113
H               181.2546918744       67.7655249053      100.3236056674
H               181.4266358028       66.3216235529       99.3253330503
H               180.1385935721       67.4820715611       98.9817715118
H               179.4029006795       68.0205129881      101.9176520552
H               178.1832801101       67.7446458993      100.6782927791
H               178.1971567535       66.7699636203      102.1427314395
N               175.0473658391       67.0593686547      103.7100831758
C               175.8431891363       66.1952710825      104.5640381746
C               174.9352614549       65.0405488530      105.0076223067
O               173.8562877954       65.2706875024      105.5562841984
C               176.3777891899       66.9595976393      105.7729032266
C               177.5320374863       67.8951703560      105.4197686855
C               177.8690296029       68.7863885725      106.6441516203
O               176.9964436575       69.5601081627      107.0494294939
O               179.0167554174       68.6452959931      107.1605646164
H               174.5672447391       67.8270622479      104.1531755266
H               176.6696945869       65.7909228312      103.9727349289
H               175.5733010283       67.5468658633      106.2225616895
H               176.7149436085       66.2387411450      106.5231030772
H               178.4128623369       67.3245043718      105.1222545149
H               177.2368975809       68.5557350502      104.6021754903
N               175.3573940348       63.8218576798      104.6978418907
C               174.6378809038       62.6315809275      105.0903253717
C               175.5507462629       61.8159317608      106.0008413788
O               176.7692667881       61.9111657113      105.9591719779
C               174.1608447255       61.8024311792      103.8734917264
C               173.3058921299       62.6733111184      102.9551521437
C               175.3349124089       61.2032303334      103.1047702906
H               176.2898787592       63.6955714290      104.3068024324
H               173.7641598843       62.9702310186      105.6602114551
H               173.5463522840       60.9888398197      104.2745821566
H               172.8845416442       62.0715999090      102.1556321840
H               172.4923323137       63.1380123887      103.5079616775
H               173.9077097536       63.4685284362      102.5173471289
H               174.9688976984       60.6549266891      102.2420227031
H               175.9993009539       61.9902512190      102.7552632982
H               175.8912075531       60.5252761098      103.7455212790
N               174.9253875817       60.9657603258      106.8246187817
C               175.6893395922       60.2353521755      107.8133492496
C               175.1422878122       58.8260478607      107.9836089113
O               173.9460940874       58.5860319224      108.0471401539
C               175.7039552551       60.9827353172      109.1702408913
C               174.3249472902       60.9968147539      109.8255911656
C               176.7640200588       60.3805824125      110.0855401028
H               173.9134766561       60.9685533800      106.9017513520
H               176.7199837121       60.2042418493      107.4424490468
H               175.9991523925       62.0131779424      108.9366068232
H               174.3369440853       61.6073066883      110.7262088755
H               173.5858745500       61.4131525803      109.1443917043
H               174.0209234371       59.9896608804      110.0994531487
H               176.8755386171       60.9951163708      110.9743655535
H               176.4956929560       59.3687844229      110.3809847625
H               177.7243521329       60.3702831864      109.5748555322
H               177.6191720506       66.5033431566       90.6214905969
H               181.5708785624       67.0646699923       90.9753273756
H               184.5996312123       67.5411445779       91.9902763134
H               188.1670145338       69.3660145179       92.4999280521
H               197.8961924041       64.7060311588      107.2749495831
H               196.5654876628       63.7062425828      108.7881166460
H               191.9144760584       63.8989965743      110.4698285969
H               192.4463663981       61.1146789237      108.4333119388
H               188.3916606750       58.6984685180      109.7159585547
H               190.0018433851       55.7347492362      109.1996457891
H               186.8642712052       52.5169867947      106.9299092946
H               189.5555203037       52.3952831529      104.1435383860
H               190.3518850862       52.5714391707      101.2768745688
H               188.4144205912       70.8383643233       97.0650187573
H               185.8154570770       70.8380555778       96.3137085298
H               183.0115127874       71.5203859274       93.6282840777
H               186.0828315855       73.2401280041      100.9190276239
H               186.4890112290       70.7516844441      106.9919526656
H               193.7186382828       70.3458820600      108.7197277631
H               190.3126245299       68.5040741196      109.5857115383
H               188.1416391916       66.0075844909      108.9830657298
H               184.1966667578       66.5275993725      109.4520969654
H               181.4611558809       60.4296209134      111.3164430971
H               176.3597959197       63.6429960332       99.7241194703
H               175.5761659889       67.4343394106      103.0857696858
H               175.7701392642       58.0504020209      108.0482315500
