 407 
 
N               219.4001457765       63.3603130818      124.0123201694
C               220.1946141509       62.6967497262      123.0105418741
C               221.0873440636       63.6417981337      122.2206554588
O               222.1015813466       63.2258201033      121.6598686088
C               219.2214035365       61.9768514441      122.0365706954
O               218.2072520039       62.8687725425      121.6399266073
C               218.5837776631       60.7720790073      122.7226031269
H               218.4004613123       63.2651245395      123.9000931076
H               220.8459857432       61.9466978791      123.4773701138
H               219.7957800247       61.6289493151      121.1657236353
H               218.5356289268       63.4434402536      120.9124679399
H               218.0680870330       60.1637908664      121.9832866627
H               219.3353177002       60.1609491251      123.2111982784
H               217.8429740455       61.0959982207      123.4514893665
N               220.7248226712       64.9169799695      122.1738332807
C               221.4743635655       65.8605450470      121.3740702118
C               222.9646501332       65.6884157694      121.6308976513
O               223.7676107348       65.5607406796      120.7064622601
C               221.0584658104       67.2993670219      121.7043564365
C               221.9621689432       68.2721116529      120.9967794219
C               221.7994175838       68.5004936847      119.6362654630
C               222.9752512992       68.9364693432      121.6763548727
C               222.6242756270       69.3894640172      118.9706411060
C               223.8131902141       69.8113148823      121.0063354298
C               223.6403277408       70.0368829932      119.6522482506
H               219.9298037262       65.2664521951      122.6946916785
H               221.2946908682       65.6469965787      120.3111968734
H               220.0237790143       67.4351197391      121.3839405492
H               221.0977763928       67.4392687409      122.7846618411
H               221.0187670387       67.9803879697      119.0986613459
H               223.1087703159       68.7655844868      122.7343933881
H               222.4567197932       69.5805262199      117.9231338739
H               224.5985415703       70.3214381129      121.5418470568
H               224.2958435531       70.7155352644      119.1329271518
N               225.1151978456       62.8925045711      120.2266123368
C               225.4891851161       63.0876354684      118.8375824071
C               226.5346548457       64.2062963026      118.6915217179
O               227.4909918489       64.1067474449      117.9343787073
C               224.2466193007       63.3729194048      117.9823179330
O               223.7278540441       64.6664611632      118.1320590650
H               224.1664296778       63.0910227356      120.5184905069
H               225.9642959874       62.1688647597      118.4699369014
H               224.5098284907       63.2750611102      116.9260926694
H               223.4846329067       62.6170788830      118.2240576711
H               223.6255503836       64.9052315612      119.0780294140
N               226.3165063637       65.2835012403      119.4505022772
C               227.1408963930       66.4639859170      119.3345808469
C               228.5247589901       66.3074177881      119.9569551635
O               229.3421467966       67.2234172899      119.8584862170
C               226.4151701471       67.6812357139      119.8869368877
H               225.4941729049       65.3496010175      120.0413201233
H               227.3551306361       66.6176301891      118.2662045880
H               227.0346294671       68.5613486119      119.7453878963
H               225.4668113686       67.8127038654      119.3753513373
H               226.2253025872       67.5453210977      120.9471852383
N               230.6043259317       64.9928436878      118.4669008213
C               231.3998510267       65.2657197116      117.2937633616
C               232.0993842759       66.6291517752      117.2812089451
O               233.0248669455       66.8229950949      116.5003466798
H               229.6909605706       64.5757447550      118.3317771789
H               232.1940250417       64.5189760179      117.1744886821
H               230.7517561749       65.2195940689      116.4171759690
N               231.6160154786       67.5805083893      118.0847271418
C               232.1737976779       68.9130679237      118.0995960068
C               233.3744853080       69.0950463155      119.0343039965
O               234.0144323392       70.1376379806      119.0123407578
C               231.0927618215       69.9313432379      118.4746487997
C               229.9397786822       69.9774197460      117.4661435227
C               228.8326541048       70.9052691544      117.9587210486
C               230.4292359431       70.4436117270      116.1027438368
H               230.8440332402       67.4068744389      118.7211038287
H               232.5610335792       69.1180265824      117.0949388809
H               230.7078005696       69.6714551847      119.4624608701
H               231.5634247436       70.9130469680      118.5469142376
H               229.5213834826       68.9699352284      117.3736524324
H               228.0093305242       70.9117475424      117.2494001189
H               228.4580332974       70.5834706745      118.9275787623
H               229.1925272282       71.9271014081      118.0560216923
H               229.5904152469       70.5351549325      115.4203848164
H               230.8989983748       71.4181534947      116.2006875256
H               231.1486699099       69.7423563009      115.6878816594
N               221.5420717947       72.6799506455      123.6079637026
C               220.6460336160       73.5273433542      122.8539477531
C               220.0286038902       74.5575625600      123.8012363522
O               219.6651374236       74.2568438992      124.9328506839
C               219.5509950212       72.6874694926      122.1690509312
C               220.2047850349       71.7357694525      121.1597049227
C               218.5241100091       73.6092237369      121.5167642186
C               219.2229340914       70.7917893160      120.4777710566
H               221.0907427537       72.0873591808      124.2892515677
H               221.2407958887       74.0508501228      122.1010934337
H               219.0457695056       72.0956658629      122.9412787260
H               220.7236296637       72.3285287819      120.4031503790
H               220.9625009462       71.1433895418      121.6777071986
H               217.8300607844       73.0352266769      120.9123773287
H               217.9395679140       74.1454395909      122.2612036997
H               219.0238365542       74.3426498649      120.8884462950
H               219.7774616706       70.0430442240      119.9194121758
H               218.5949276079       70.2891090929      121.2084583110
H               218.5778071807       71.3275210610      119.7881307932
N               213.5148011598       74.5037826169      120.0621421972
C               214.0733029399       74.2819200091      118.7418870245
C               213.3916533073       75.2664276185      117.7812616392
O               212.2427865047       75.6513079284      117.9739986378
C               213.8994822233       72.8405393663      118.2716142609
C               214.9481080555       71.8836374782      118.8525919185
C               214.8767273797       71.8159783098      120.3754415197
C               214.7530171948       70.4935837183      118.2515362382
H               212.6578701563       74.0223970296      120.3028947446
H               215.1377925104       74.5316345821      118.7988958643
H               212.8981861606       72.4990659197      118.5385404010
H               213.9798750055       72.8321732108      117.1829611925
H               215.9379647574       72.2517378878      118.5648211945
H               215.5564134844       71.0517949931      120.7447622547
H               215.1494443254       72.7630890138      120.8332774753
H               213.8666941983       71.5638180617      120.6923087573
H               215.4985169981       69.8092096308      118.6441918190
H               213.7701895531       70.1052020772      118.5062904177
H               214.8376548998       70.5219193929      117.1688051835
N               212.7489546024       71.1530368161      108.2894591227
C               213.9595082146       70.9977985369      109.0632847197
C               213.8408065935       71.7289138560      110.4035581093
O               212.9638540939       72.5568012124      110.6292263939
C               215.1388439729       71.5379356631      108.2534883095
C               215.4665112034       70.6513811528      107.0523566891
C               216.4460592224       71.3805852945      106.1339726348
C               216.9881403779       70.5227315154      104.9988922033
N               217.7613969794       69.3744988328      105.5322714075
H               212.7213390454       71.9413894161      107.6514683117
H               214.0787858846       69.9288100203      109.2775430927
H               214.8801762305       72.5419373291      107.9096314007
H               216.0174604638       71.6293581633      108.8951452519
H               215.9034582154       69.7271888243      107.4322683680
H               214.5439910049       70.4189047118      106.5180406607
H               215.9514443399       72.2601347764      105.7215638210
H               217.2820224932       71.7420118889      106.7306133966
H               216.1717466338       70.1587422922      104.3730156152
H               217.6548599531       71.1398956935      104.3978044149
H               218.4388640771       69.0326855494      104.8477042892
H               218.2920544439       69.6477547932      106.4689081060
H               217.1323750056       68.6129414685      105.7964037552
N               214.7702812586       71.3811934798      111.3038807474
C               214.8924504347       72.0267880887      112.5848988842
C               216.2865160245       72.6322433480      112.7179581895
O               217.2695343932       72.1015876296      112.2135850641
C               214.7530014044       71.0080583255      113.7360313287
C               213.4267021868       70.3084693619      113.7635177809
C               213.1651380062       69.2754138368      112.8711398201
C               212.4592800370       70.6398352021      114.7020473789
C               211.9747526621       68.5801460135      112.9125703301
C               211.2710239408       69.9328992752      114.7707891164
C               211.0294795203       68.8970821270      113.8794426737
O               209.8775231102       68.1591281364      113.9390022801
H               215.5140564960       70.7318104443      111.0861964507
H               214.1250921440       72.8036969239      112.6435454194
H               215.5428414205       70.2677598591      113.5917634371
H               214.9222722162       71.5329530152      114.6774187526
H               213.9174148766       69.0036986768      112.1493454644
H               212.6351055306       71.4429152287      115.4030355705
H               211.7874915719       67.7945797087      112.2029680645
H               210.5382152745       70.1859642285      115.5260935543
H               209.3462917358       68.4681852825      114.6831955220
N               216.3495262398       73.7055347381      113.5079113125
C               217.5887154049       74.3794899189      113.8064809166
C               217.6485597710       74.6320172603      115.3094169405
O               216.6500174838       74.6483840069      116.0159275353
C               217.7043696106       75.7038637825      113.0184179905
C               217.7779325998       75.3644796843      111.5582801415
C               216.6157326272       75.2143888597      110.8126396514
C               218.9968232790       75.0651832879      110.9632304823
C               216.6619373649       74.7503984534      109.5129645670
C               219.0515955687       74.5855356529      109.6712948139
C               217.8818810693       74.3952316365      108.9421518274
O               217.9051708389       73.8835048676      107.6883170056
H               215.5078781802       74.2214012075      113.7401347441
H               218.3983152801       73.7056595991      113.5030291246
H               216.8212146028       76.3105199824      113.2239313719
H               218.5980785384       76.2385210675      113.3401409115
H               215.6573320257       75.4456325398      111.2590060205
H               219.9106900407       75.2041431508      111.5221696863
H               215.7542754601       74.6399250087      108.9373722412
H               219.9938912699       74.3318893321      109.2111153668
H               218.7033650486       73.3143667088      107.5896069987
N               218.8798374434       74.8516542613      115.7772275846
C               219.1375961915       75.0126422136      117.1896553116
C               220.2933635945       75.9897083070      117.3819666769
O               221.2846591105       75.9467893403      116.6697109181
C               219.5401477561       73.6765373524      117.8251575090
H               219.6784989558       74.6987660447      115.1731255941
H               218.2104235173       75.3798721672      117.6388808749
H               219.8014659329       73.8129343446      118.8700884665
H               218.7165729082       72.9734490184      117.7413962456
H               220.4026397509       73.2678347550      117.3038636170
N               223.0380882192       75.3913684131      114.1959545627
C               223.2220523500       74.1414439404      113.5015610940
C               221.8487918809       73.5518599502      113.1655744112
O               220.8398058248       73.9170167040      113.7472318738
C               223.9556015708       73.1370031388      114.4156969263
C               225.3987797792       73.4867071873      114.6638721355
C               225.8504909587       73.8272715485      115.9320704956
C               226.3320714260       73.4012302212      113.6402159969
C               227.1956597563       74.0037513896      116.1985770652
C               227.6801974503       73.5398721670      113.8982617062
C               228.1275550597       73.8125699065      115.1850090171
O               229.4548570617       73.9164442698      115.4732154182
H               222.3156138468       75.3904586142      114.9107884987
H               223.8005425508       74.3311130048      112.5930591920
H               223.4224860859       73.0957136253      115.3669902591
H               223.9002127193       72.1498637069      113.9536991581
H               225.1386150384       73.9400624341      116.7324467590
H               226.0127850520       73.2138608703      112.6263861437
H               227.5454526512       74.2575389496      117.1884060110
H               228.3913602637       73.4038564225      113.1000556562
H               229.9648500566       73.4830565721      114.7754238424
N               221.8504097861       72.6027919388      112.2152968522
C               220.6707412110       71.8327082608      111.8746489989
C               220.5796898794       70.5870424775      112.7602261510
O               221.5824401672       69.9355888146      113.0499434759
C               220.7287504388       71.4142960795      110.4033451130
C               219.4183978414       70.8023687978      109.9263945364
C               219.3063911205       70.7962663988      108.3892997078
O               218.8278018822       69.7530375071      107.8765317509
O               219.6499884119       71.8063468665      107.7551709898
H               222.7314348138       72.2516541849      111.8713027118
H               219.7972951301       72.4688161199      112.0422053804
H               220.9336951822       72.2988007650      109.7965329822
H               221.5508664046       70.7074528574      110.2585863951
H               219.2844061734       69.7828495647      110.2906007054
H               218.5830356983       71.4068718899      110.2931863761
N               219.3545822620       70.2782753131      113.1810395048
C               219.0792474529       69.0871989125      113.9535460090
C               217.9035164274       68.3406697337      113.3213990895
O               217.0541565068       68.8948425907      112.6363457095
C               218.8463595938       69.3895795927      115.4547620392
C               219.9992883224       70.2259501926      116.0062407223
C               217.5226249508       70.0976563783      115.7139575874
H               218.5511374150       70.8016682716      112.8441711622
H               219.9592804438       68.4396370415      113.8906447707
H               218.8366371239       68.4176194190      115.9571567236
H               219.9077455064       70.3152375841      117.0848819040
H               220.9561029367       69.7680632795      115.7706979123
H               219.9869952462       71.2217906101      115.5677885236
H               217.4328914463       70.3275871347      116.7715588461
H               217.4699401136       71.0275696552      115.1517413834
H               216.6847298341       69.4665887117      115.4290423132
N               217.9257030133       67.0233887302      113.5516894003
C               216.9039607903       66.1166889585      113.0889419779
C               216.1750037871       65.5124969422      114.3017063718
O               216.6526864859       65.5716047486      115.4241434301
C               217.5310800690       65.0190054792      112.2075811806
O               218.6146079771       64.4289935405      112.8937172413
H               218.6281597499       66.6260290120      114.1681937918
H               216.1918117652       66.6984325745      112.4920829840
H               216.7633914276       64.2763158234      111.9685216473
H               217.8900288405       65.4807324546      111.2772080475
H               218.7993230109       63.5627178452      112.5164883245
N               214.9837839054       64.9682406132      114.0223291261
C               214.0899869803       64.4796356167      115.0524767848
C               213.5653098083       63.0969784079      114.6637879266
O               213.1576149199       62.8602773103      113.5349230696
C               212.9149186657       65.4691903689      115.2370486510
C               211.9462611295       64.9588361300      116.2993282711
C               213.4505347029       66.8396974781      115.6434021447
H               214.6365691393       64.9085038422      113.0758255385
H               214.6524351850       64.4103517189      115.9841833984
H               212.3977571379       65.5534536740      114.2763392881
H               211.1552774357       65.6839426687      116.4694936795
H               211.5019007237       64.0072357307      116.0209527728
H               212.4679197269       64.8069448943      117.2433524296
H               212.6314133986       67.5324172693      115.8105194919
H               214.0150177044       66.7505874192      116.5687698185
H               214.1038173850       67.2595526753      114.8834306211
N               213.1194227251       62.1495563584      119.8980944729
C               214.5260758982       62.3972920531      120.1553686796
C               215.0856928876       63.3884517840      119.1310751944
O               214.6357810378       63.4691730308      117.9924420213
C               215.3448665519       61.1145098396      120.0533823762
C               215.0839562354       60.1423216760      121.1920440061
C               215.8769974648       58.8246937109      120.9562784651
O               215.3037298815       57.7524435311      121.2544080688
O               217.0317778562       58.9218357691      120.5067657746
H               212.8167295311       61.2020338803      119.7066185291
H               214.6476740863       62.8330267750      121.1560982807
H               215.1193758684       60.6176008789      119.1049513661
H               216.4082363668       61.3637857211      120.0555719491
H               215.4146401445       60.5717748496      122.1432576768
H               214.0236691409       59.9033635031      121.2729288981
N               216.1320684014       64.0911496121      119.5617116848
C               216.8158594015       65.1093702500      118.7867777862
C               218.2853544658       64.7344824021      118.5978028247
O               218.9929371836       64.3798671522      119.5445922951
C               216.7502139980       66.4600789388      119.5330296117
C               217.5765780490       67.5324918215      118.8295086446
C               215.3039393714       66.9178369524      119.6833529023
H               216.3895298359       64.0100776564      120.5362729918
H               216.3207293040       65.1766797750      117.8144756497
H               217.1674494705       66.2780261184      120.5308793732
H               217.4898357790       68.4639175151      119.3829713671
H               218.6242467962       67.2475399662      118.7872012045
H               217.2136684706       67.6756275693      117.8149905027
H               215.2768702467       67.8306940201      120.2723008426
H               214.8685453380       67.1119838023      118.7060881255
H               214.7006766268       66.1589541796      120.1792650604
N               218.7749171646       64.9193653095      117.3717015574
C               220.1613767269       64.6628762785      117.0551133764
C               220.7259793637       65.7878848159      116.1871715746
O               220.0543275164       66.3276475472      115.3148323786
C               220.3255387516       63.3158816369      116.2921213135
O               219.3435522018       63.1582451663      115.3041526815
C               220.2136679486       62.1372471920      117.2541228525
H               218.1545376702       65.1601899499      116.6021059130
H               220.7125596899       64.5933365490      117.9970352824
H               221.3326946087       63.3137495288      115.8369922561
H               219.2925504830       63.9443946515      114.7354899341
H               220.3171895745       61.2059006453      116.7056010995
H               220.9837792722       62.1919265607      118.0180032233
H               219.2386594032       62.1381711065      117.7355769204
N               221.9870049758       66.1256299518      116.4584300323
C               222.7185957412       67.0954704765      115.6537277837
C               222.9096008674       66.4932648247      114.2589811268
O               223.5622646287       65.4674432556      114.0762948777
C               224.0521774142       67.3906611526      116.3362324304
C               224.9341219331       68.3752529697      115.5609347724
C               224.3024432233       69.7505850557      115.3764917930
C               226.2694935587       68.5461547727      116.2842168442
H               222.5569301460       65.5522917467      117.0813934674
H               222.1014276706       67.9933212591      115.5657714379
H               223.8536554340       67.7743879972      117.3370698401
H               224.5840449301       66.4416097759      116.4393841521
H               225.1096685864       67.9555855212      114.5665114102
H               225.0513378736       70.4134367152      114.9509811443
H               223.4508202628       69.7195536238      114.7019949433
H               223.9937026926       70.1622069436      116.3324640401
H               226.9730842426       69.0934886855      115.6613533764
H               226.1234483790       69.0951616271      117.2092397035
H               226.7187929446       67.5856204359      116.5257475749
N               222.2333612878       67.0943167925      113.2747178267
C               222.2699432694       66.5234641781      111.9396912608
C               223.7208314376       66.5890798246      111.4554579402
O               224.3861400857       67.6096411777      111.5608966628
C               221.3344683861       67.2878025576      111.0149348608
H               221.9395572313       68.0677045971      113.3469820467
H               221.9597986013       65.4756169740      112.0241475166
H               221.3491774548       66.8578016919      110.0180183128
H               220.3207495343       67.2477920772      111.4066394290
H               221.6488548982       68.3267463135      110.9560135213
N               224.2240857005       65.4520051041      110.9524706829
C               225.6083369069       65.3919801779      110.5390231106
C               226.5434621530       66.0206370158      111.5686933347
O               227.5333670477       66.6615039809      111.2284245846
H               223.6682927032       64.6130827319      110.9218676914
H               225.8974045933       64.3510260478      110.3926620166
H               225.7577613685       65.9403162315      109.6020906466
N               226.2814390663       65.7859123093      112.8590170822
C               227.2124645042       66.3172378090      113.8315214631
C               227.8145298768       67.6468977124      113.3514705434
O               229.0076562998       67.8717262863      113.4841823593
H               225.4166557772       65.3639890960      113.1802673323
H               226.7054576976       66.4431712013      114.7830788088
H               228.0556570700       65.6290034628      113.9614018803
N               226.9376036785       68.5580383176      112.8737466474
C               227.4128339504       69.5634945731      111.9322764458
C               228.6329655715       70.2332351918      112.5612561129
O               228.5651828931       70.8229085523      113.6260341076
C               226.2874970085       70.5471816927      111.6601593978
H               226.0021000137       68.2384252760      112.6451558611
H               227.7149169190       69.0579208525      111.0032532826
H               226.6142104875       71.3023407923      110.9510934538
H               225.4337108222       70.0116229888      111.2530857774
H               226.0084781686       71.0237551854      112.5948699192
N               226.6370318565       77.1388165781      110.4563330882
C               226.1661061718       77.4265928701      109.1179904764
C               226.4852106799       78.8737989281      108.7427236212
O               226.3604608188       79.7845478081      109.5576734697
C               224.6458905211       77.2386289447      109.0500321743
C               224.1650656001       75.8576832566      109.5155898970
C               222.6381984153       75.8344748114      109.4903882518
C               224.7399714337       74.7344868214      108.6561194152
H               225.9546352006       77.0630398901      111.1976863063
H               226.6843670174       76.7546533649      108.4253420003
H               224.1728089620       77.9965007998      109.6796445242
H               224.3190981119       77.4081560198      108.0224971469
H               224.4860098149       75.7046869455      110.5512232791
H               222.2656890106       74.9049482991      109.9153447368
H               222.2354819613       76.6654847266      110.0646587165
H               222.2725326547       75.9130321579      108.4689697079
H               224.2706969524       73.7875004024      108.9132042517
H               224.5490134162       74.9257686707      107.6026501072
H               225.8120771912       74.6339980029      108.8081683297
H               219.5998802595       63.0264286408      124.8238787418
H               223.3124236124       65.6770918281      122.5684078515
H               225.2416290855       62.0308191482      120.4535779149
H               228.7630213766       65.4653382869      120.4408282344
H               231.0466373969       64.4216279400      119.0036252732
H               233.6349779389       68.3616575993      119.6622248356
H               221.9861616889       72.1360801366      123.0449459094
H               219.9124570271       75.5048664266      123.5026977606
H               214.1097637880       74.2476131795      120.6869595228
H               213.8848963798       75.6062489096      116.9804915339
H               212.6202200855       70.4204012094      107.7828305684
H               220.2481568166       76.6821622961      118.1020109951
H               223.8040974803       75.6213217344      114.6086908972
H               213.5498128314       62.3599579331      115.3394806551
H               212.6342554957       62.4021786871      120.6127935134
H               229.5184829926       70.1951397357      112.0982143943
H               227.0703548967       76.3500055416      110.4592125901
H               226.8017820556       79.0928468337      107.8197931909
