 432 
 
N                63.9932399230       26.6815962868       51.9643512982
C                62.5640385572       26.8399946751       51.5150863200
C                62.4778460785       26.9097790786       49.9695603009
O                62.2875097784       27.9397600813       49.3576060948
C                62.1250589514       28.1639468608       52.1421585635
C                63.3939432018       29.0049470177       52.0600499266
C                64.4916869658       28.0225483313       52.4376532023
H                64.0454518214       26.0483641507       52.7707749218
H                64.5758668265       26.2904636545       51.2127023053
H                61.9716164800       25.9923328029       51.8699711310
H                61.3195676698       28.6301545158       51.5814125502
H                61.8081038222       28.0114206383       53.1712269319
H                63.5112584931       29.3609855709       51.0382168716
H                63.3881158098       29.8582480283       52.7298930449
H                65.4448943742       28.2925164236       51.9900301189
H                64.6078709246       27.9694414708       53.5195097078
N                62.6097976662       25.7136232418       49.3616386687
C                62.5886599459       25.6253942911       47.9117947626
C                61.2074234201       25.9465436821       47.3228473346
O                61.0577524190       26.0927636581       46.1179309150
C                63.0429063691       24.2476329784       47.3928007320
C                64.0273152861       24.3599535944       46.2147367819
C                65.4683769680       24.4543292234       46.7093322837
C                63.8914294732       23.1592660065       45.2839237093
H                62.7055282904       24.8529971398       49.8832575387
H                63.2733162833       26.3946443105       47.5308576433
H                63.5295629591       23.6888570998       48.1918979230
H                62.1732146489       23.6732791460       47.0684383459
H                63.7785891029       25.2585921579       45.6431940316
H                66.1452740060       24.5695605025       45.8664769352
H                65.6102784694       25.2971061228       47.3792760186
H                65.7462266346       23.5368972042       47.2245041791
H                64.5972467272       23.2394794079       44.4602777680
H                64.1030703623       22.2336792763       45.8144839597
H                62.8867799337       23.1070896902       44.8718444878
N                60.1943889786       26.0717152863       48.1914895775
C                58.8147511619       26.1967908741       47.7540647241
C                58.5243074614       27.4930475451       47.0007554445
O                57.6905196218       27.5201491962       46.1067796397
C                57.8758679286       26.0327564655       48.9511466668
C                57.5534496582       24.6001126157       49.3253049806
C                56.7844291417       24.3741528503       50.4650595460
C                57.9025483171       23.5060972253       48.5432892557
C                56.2915074010       23.1123838144       50.7418096126
C                57.4026260646       22.2429377985       48.8151373881
C                56.5662100162       22.0488817893       49.8975425782
H                60.3206473654       25.7811946592       49.1501982301
H                58.6047050401       25.4264662938       47.0056255655
H                58.2893272859       26.5657000929       49.8113697709
H                56.9251982731       26.5140566432       48.7015295298
H                56.5519440636       25.1866827986       51.1388109848
H                58.5629987579       23.6138266631       47.6999073640
H                55.6718441310       22.9595353141       51.6118112986
H                57.6502727726       21.4067042591       48.1762177584
H                56.1440079596       21.0736182983       50.0870960805
N                59.2157138811       28.5821476017       47.3599884208
C                59.0326136682       29.7850707960       46.5699704653
C                59.7660725902       29.6220267901       45.2420546050
O                59.2637735635       29.9336649983       44.1711553075
C                59.4559362457       31.0404902628       47.3254304498
C                58.7175061033       31.1789080428       48.6353738418
C                59.3571112118       31.7458738542       49.7330094767
C                57.3996716468       30.7626015497       48.7786549422
C                58.7028493728       31.8936501271       50.9399579672
C                56.7363117605       30.8935901676       49.9838653721
C                57.3842600752       31.4632474760       51.0737810077
O                56.7740541092       31.6127166977       52.2792162945
H                59.8858028867       28.5621252853       48.1152912159
H                57.9705887035       29.8413175198       46.3091656440
H                60.5320761473       31.0257691174       47.5089186663
H                59.2417636079       31.8980986147       46.6808716670
H                60.3765257962       32.0908945163       49.6403892070
H                56.8625290332       30.3291589035       47.9501565181
H                59.1946544900       32.3456609456       51.7876251938
H                55.7116538789       30.5576216646       50.0737337958
H                55.8579564439       31.3070796902       52.2326693442
N                60.9820274147       29.0798608771       45.3449981513
C                61.7769816862       28.8393265712       44.1600967979
C                60.9063875413       28.0771057516       43.1568451786
O                60.8161469984       28.4644312455       41.9969586580
C                63.1151274003       28.1369748799       44.4587918767
C                64.0870629454       28.4072163255       43.3117386279
C                63.7429702910       28.6477101031       45.7556074913
H                61.3442871575       28.8077242208       46.2453060700
H                61.9932202783       29.8070521625       43.6806768741
H                62.9243841087       27.0620035950       44.5291607352
H                65.0106943293       27.8527837767       43.4548305798
H                63.6515708617       28.1231525850       42.3577909246
H                64.3369374905       29.4660264729       43.2745307368
H                64.7446656895       28.2379934514       45.8548074793
H                63.8273092054       29.7308407147       45.7260090424
H                63.1689480339       28.3601733572       46.6319036188
N                60.2080867100       27.0263338701       43.5924643432
C                59.3422899865       26.3066000262       42.6685982288
C                58.6344892895       27.2917937831       41.7478720555
O                58.6541483008       27.2000743938       40.5212811909
C                58.2127869037       25.5384661703       43.3886001389
C                58.7574934631       24.3393543653       44.1708339843
C                57.1745402186       25.0571344569       42.3701544418
C                57.6773861358       23.7013747945       45.0432196267
H                60.3607266705       26.6474078982       44.5221329617
H                59.9364733816       25.6264602693       42.0401183829
H                57.7474420225       26.2351265661       44.0943446072
H                59.1544194443       23.6201982692       43.4528536009
H                59.5769602060       24.6784001351       44.8061053097
H                56.3071405166       24.6507725193       42.8791248478
H                56.8052613349       25.8382567506       41.7112038973
H                57.6120750003       24.2851354163       41.7421722737
H                58.0722655227       22.9244230451       45.6942750920
H                57.2168958113       24.4744044764       45.6551877308
H                56.9032596556       23.2341656209       44.4432543473
N                57.8574606710       28.1786928904       42.3845003313
C                56.8611073732       28.9327154012       41.6661505055
C                57.4372927786       30.1992765927       41.0447739564
O                56.7331777410       30.9036383193       40.3365312470
C                55.6908003370       29.3710170400       42.5456453538
C                54.9246388990       28.1614156495       43.0607402685
O                54.6084196648       27.2440520884       42.3217195716
N                54.6145371300       28.1975837297       44.3625872369
H                57.8751783914       28.2604546798       43.3914298454
H                56.4716881740       28.2706470062       40.8756860144
H                56.0478568408       30.0214169841       43.3426435466
H                55.0187013695       29.9471825080       41.9028304315
H                54.1291149740       27.4145434739       44.7734470864
H                54.9521284848       28.9283155732       44.9626460066
N                58.7143811820       30.4439618767       41.3487491807
C                59.4647193374       31.5845171557       40.8887953574
C                60.6480798427       31.2027255218       39.9808120872
O                61.2656363406       32.0796237422       39.3893722999
C                59.8495461887       32.4824162318       42.0619324215
C                58.6520443081       33.0929633108       42.7565337287
C                58.8389607144       33.6354669866       44.0231258467
C                57.3747687994       33.1326955477       42.2112871106
C                57.7800803956       34.1750097102       44.7300878261
C                56.3042668740       33.6400689180       42.9291732840
C                56.5025382071       34.1607479007       44.1940688829
H                59.1328612310       29.9252089062       42.1138385109
H                58.8261760229       32.1761519128       40.2313215066
H                60.4002456354       31.8773892160       42.7857216648
H                60.5079052486       33.2659108522       41.6769589550
H                59.8321515438       33.6366866398       44.4484791662
H                57.1740902454       32.7519145215       41.2267706543
H                57.9610874320       34.6035378717       45.7039729878
H                55.3193235664       33.6141964858       42.4836929328
H                55.6712041810       34.5502859957       44.7587469516
N                60.8338520406       29.8879212116       39.7937286360
C                61.6563526639       29.2998941112       38.7485008638
C                60.7239964151       28.9843147726       37.5881180941
O                61.0104719218       29.3288497660       36.4425441427
C                62.4977002749       28.0893590521       39.2277176826
C                63.7609631696       27.7780430723       38.3849791680
C                61.6879615977       26.7957728513       39.3136364619
C                64.3956035387       28.9239841114       37.6089237806
H                60.3366371107       29.2560464253       40.4050712523
H                62.3348179041       30.0857537979       38.4013258778
H                62.8141892262       28.3651545941       40.2371285878
H                64.5096537461       27.3637147661       39.0637386859
H                63.5211235962       26.9951368008       37.6616943719
H                62.3210098283       26.0101510106       39.7191149245
H                60.8235689340       26.8991684339       39.9598604521
H                61.3566774096       26.4829850854       38.3250812092
H                65.3129844916       28.5745744145       37.1402518791
H                63.7283603155       29.2498899646       36.8153619927
H                64.6426905938       29.7687504607       38.2460174995
N                59.5434898607       28.4430045729       37.8906474277
C                58.5621002925       28.1797910247       36.8605974133
C                58.2846550140       29.4267350130       36.0216950260
O                58.2868301985       29.3136882927       34.7969100699
C                57.3068604275       27.4909972585       37.4540484176
O                57.6768023903       26.2693885097       38.0426194029
C                56.3119300266       27.1711581574       36.3453177496
H                59.3523244910       28.0874447588       38.8189470700
H                58.9712308675       27.4557725586       36.1416593906
H                56.8465477797       28.1576296332       38.1972775838
H                58.0667840631       26.4156289300       38.9175899713
H                55.4537719076       26.6604557921       36.7720262965
H                55.9905856333       28.0781395043       35.8475475934
H                56.7824858510       26.5087309836       35.6228029727
N                58.0219054116       30.6175690250       36.5797759738
C                57.7560281479       31.7412643392       35.7020273755
C                59.0019745183       32.1142964133       34.9294478918
O                58.9107170315       32.6088153380       33.8168317097
C                57.3189333399       32.9099728871       36.5940077194
C                57.8035486803       32.5368194679       37.9972634383
C                58.2744878757       31.0768430194       37.9258420038
H                56.9957738509       31.4818560695       34.9599784145
H                57.7709438112       33.8364032119       36.2403957726
H                56.2385467514       33.0355670815       36.5614599833
H                58.6329166571       33.1758965026       38.2994652419
H                57.0018856358       32.6227381130       38.7271706421
H                59.3395426885       31.0295805173       38.1584684462
H                57.7412336651       30.4482781207       38.6298845020
N                60.1781843096       31.9366939039       35.5403173855
C                61.4102273438       32.2369606163       34.8528736684
C                61.6584180751       31.3004073374       33.6683007323
O                62.1257661338       31.7470571131       32.6209965968
C                62.5921046343       32.2176597891       35.8034327499
S                64.0296013131       32.9325878585       34.9110452121
H                60.2508393260       31.4742046281       36.4308432949
H                61.3293268021       33.2428786188       34.4262112205
H                62.3805463516       32.8458828112       36.6677131760
H                62.8469551613       31.2036239762       36.1083935659
H                64.7490998601       33.0155221081       36.0224904644
N                61.3414169602       30.0224541513       33.8322864229
C                61.5763896538       29.0786228333       32.7572881937
C                60.5037101576       29.2752275645       31.6884335449
O                60.7906839192       29.2765041700       30.4933897590
C                61.6798251551       27.6079249842       33.2130691838
C                62.8597384731       27.4455308730       34.1667794238
C                60.3951814682       27.1317073941       33.8770739993
H                61.0613952750       29.6893718325       34.7485199319
H                62.5284712644       29.3572141208       32.2830095601
H                61.8670921819       27.0243878237       32.3053299156
H                62.9148497762       26.4240161118       34.5336963132
H                63.7931705157       27.6798934137       33.6626972353
H                62.7273654554       28.1110133366       35.0147094203
H                60.4940520429       26.1156905687       34.2518000670
H                60.1789063931       27.7845638031       34.7131734778
H                59.5635738151       27.1615337788       33.1811660559
N                59.2571030430       29.4706112966       32.1272181202
C                58.2201262565       29.7154795927       31.1515936554
C                58.4418318621       31.0858311793       30.5080101779
O                58.2265377394       31.2257528458       29.3098273629
C                56.7891744790       29.6303556717       31.6857683351
C                56.4490577554       28.4078125094       32.5481370113
C                55.0915582341       28.6643369873       33.2009552361
C                56.4139075745       27.1075771367       31.7520794419
H                59.0127847399       29.4447928956       33.1119970012
H                58.3507466548       28.9902213194       30.3346898805
H                56.5922961019       30.5321627467       32.2676776668
H                56.1303725184       29.6303265194       30.8136552046
H                57.1938923307       28.3124719786       33.3376106822
H                54.7717944412       27.7944220485       33.7666386905
H                55.1554101004       29.5166223696       33.8734625550
H                54.3462425791       28.8781206693       32.4392935500
H                56.2498096446       26.2693135097       32.4253375476
H                55.6055204174       27.1205319861       31.0251363582
H                57.3478792843       26.9387200583       31.2216801000
N                58.8763344602       32.0943454384       31.2585818237
C                59.1174868638       33.3785929971       30.6275729245
C                60.3059797283       33.2861532666       29.6928464703
O                60.3503045025       33.9431127141       28.6609175019
C                59.3095346794       34.5559937178       31.5945963809
C                59.1935073991       35.8579833621       30.7958855635
C                60.6622600017       34.4876001680       32.2924171820
C                59.0067209674       37.0580783663       31.7052491398
H                58.9168068228       32.0829268396       32.2739232901
H                58.2583868859       33.6087544939       29.9917136662
H                58.5103652063       34.5098008976       32.3400033047
H                60.0851214956       35.9753825350       30.1765946137
H                58.3461999221       35.8018118369       30.1163724426
H                60.6669082889       35.1033623068       33.1867822039
H                60.8853034712       33.4695763528       32.5695544037
H                61.4574475780       34.8168652954       31.6286398845
H                58.8586664947       37.9664617141       31.1273498525
H                58.1315280843       36.9150765047       32.3335155734
H                59.8778833173       37.1892828785       32.3397900839
N                61.2816735210       32.4429898934       30.0403597321
C                62.3612757349       32.2273491354       29.1119525993
C                61.8275262810       31.5063998779       27.8816120132
O                62.3653466804       31.6951119222       26.7930129531
C                63.5195503885       31.4375904939       29.7349684233
O                64.1795109721       32.1461504606       30.7413954921
H                61.3445431838       32.0353770858       30.9645421103
H                62.7401575362       33.2008582994       28.7630256567
H                63.1290223560       30.4788281854       30.0996259461
H                64.2591352965       31.2492757796       28.9526116497
H                63.5864418196       32.2240803285       31.5066759239
N                60.7725344536       30.7137835426       28.0386723981
C                60.0291681154       30.2232227815       26.8948853746
C                59.3350364961       31.4157704329       26.2106967730
O                59.4620952829       31.5425136865       24.9960753168
C                59.0679272214       29.0738021282       27.2678610448
C                57.7043897897       29.2579756620       26.6562172429
C                56.6499975186       29.7662311503       27.4017794575
C                57.4789025022       28.9233823391       25.3290424917
C                55.4368078885       30.0537375355       26.8096593494
C                56.2636952034       29.2176668126       24.7298055032
C                55.2622997504       29.8358479127       25.4552476412
H                60.4979178384       30.4044776384       28.9649644159
H                60.7488488226       29.8693070610       26.1423959851
H                59.4905304127       28.1254128003       26.9329574291
H                58.9911621213       29.0502152201       28.3523011381
H                56.7845528211       29.9670878005       28.4473712561
H                58.2571893335       28.4312684136       24.7655804639
H                54.6242604710       30.4334545215       27.4080513469
H                56.0876611320       28.9548910324       23.6954546002
H                54.3444641036       30.1282894910       24.9779792330
N                58.6795824916       32.3209511083       26.9302260606
C                58.0649277560       33.4408175133       26.2408416362
C                59.0909474203       34.2309704852       25.4348307344
O                58.7678804462       34.7272341603       24.3616399807
C                57.3805048204       34.4830550759       27.1377457513
C                56.4383899671       33.8990077093       28.1900139539
C                55.8453405030       34.9949565418       29.0723947044
C                55.3068954328       33.0906465514       27.5784131083
H                58.4771426988       32.1422693535       27.9104315390
H                57.3417862412       33.0554539761       25.5084698895
H                58.1576484870       35.0762570744       27.6268739921
H                56.8210928364       35.1397213101       26.4668125495
H                57.0248409276       33.2203278527       28.8086419591
H                55.5109730001       34.5731082887       30.0164824914
H                56.5661618497       35.7797336925       29.2779623519
H                54.9939229906       35.4413891082       28.5675284271
H                54.8028721520       32.5402588778       28.3680168130
H                54.5808495794       33.7357923006       27.0927426133
H                55.6941122488       32.3911541443       26.8476562458
N                54.9133763807       40.0883379560       39.7592913315
C                55.8184737880       39.2233306654       40.4996846175
C                56.6887088027       40.0988800856       41.4050351944
O                56.9211661112       39.8083419610       42.5781198752
C                56.6742965499       38.3699525244       39.5312234653
O                55.8746338211       37.5036990675       38.7630955945
C                57.6564323451       37.5099606858       40.3191935040
H                54.8205180452       39.9624977767       38.7566751764
H                55.2370492618       38.5586985518       41.1553205809
H                57.2232575884       39.0604463170       38.8711909093
H                55.2643866113       38.0110200803       38.2062469431
H                58.2337389592       36.8872091613       39.6425890448
H                58.3198768825       38.1483663240       40.8917110029
H                57.1041444441       36.8597465436       40.9918730957
N                55.1509081255       40.8962138055       44.6377372465
C                55.0698590889       39.7965706032       45.5754802752
C                56.4081516339       39.6276490937       46.2841758082
O                56.4904874057       39.4625282959       47.5021376348
C                54.6896377774       38.5143238774       44.8351194672
C                53.3181380779       38.6635495211       44.1824210389
C                52.2305144436       39.0344490269       45.2016385758
N                50.9727467890       38.3791662937       44.9149771225
C                50.7599353847       37.0955980368       45.1732906517
N                51.7559072017       36.2715765476       45.4971287643
N                49.5177704557       36.6298252749       45.0786340886
H                55.4364194184       40.6638981156       43.6948076048
H                54.3284742174       40.0340326846       46.3474710030
H                55.4399198548       38.3171666798       44.0668661503
H                54.6953142455       37.6925763319       45.5511338522
H                53.3772395915       39.4374567881       43.4174674732
H                53.0392669082       37.7297874385       43.6962078768
H                52.5169168769       38.7657930143       46.2236214194
H                52.0656296168       40.1106393308       45.2052688513
H                50.1771843224       38.9417100704       44.6577590149
H                52.6223638112       36.6330950277       45.8637919537
H                51.5282663841       35.3102122269       45.6981315077
H                48.8740102837       37.1464868258       44.4960859653
H                49.3165595820       35.6434567165       45.1683799325
N                57.4849529064       39.7020103511       45.5089932833
C                58.8098060824       39.6399758459       46.0757250635
C                59.1104346736       40.7264045197       47.1186836617
O                59.8225486171       40.4067541310       48.0710881165
C                59.8550734519       39.6461037444       44.9607604243
C                59.6657614618       38.5011580702       43.9522708780
C                60.6940767094       38.6321893804       42.8324728046
C                59.7921492175       37.1302128649       44.6071174128
H                57.4018285134       39.8455533490       44.5087882034
H                58.8977598696       38.7081873541       46.6513671164
H                59.7940959125       40.6050083701       44.4408621786
H                60.8354741099       39.5590954279       45.4298694944
H                58.6683827247       38.5831620254       43.5120346824
H                60.5722931678       37.8189151816       42.1214844069
H                60.5659949201       39.5755845475       42.3081313695
H                61.6993548556       38.5894771473       43.2422112303
H                59.7029492701       36.3532416344       43.8527349902
H                60.7544976227       37.0232780505       45.1012085949
H                59.0030946176       36.9772017819       45.3367118334
N                68.0807407123       39.5745711147       36.1353169792
C                67.5758604373       38.6947440846       35.0992467092
C                66.2702288401       39.2690958464       34.5602698747
O                66.0418765229       39.3029557024       33.3567462249
C                67.2951741492       37.2737720759       35.5760656249
C                68.5274331750       36.4217178680       35.8964599977
C                68.0437929704       35.0187181342       36.2593925408
C                69.5031896489       36.3360482317       34.7272414026
H                68.2126591360       39.2091029948       37.0720036486
H                68.2778896784       38.6941214711       34.2566321685
H                66.6621578841       37.3361228031       36.4631065583
H                66.7286530144       36.7748438736       34.7850040908
H                69.0397462819       36.8689174543       36.7539130665
H                68.8828470533       34.3610298836       36.4611092559
H                67.4105928727       35.0538472930       37.1412695166
H                67.4784006606       34.5936846628       35.4333516319
H                70.3282284403       35.6759208642       34.9832047170
H                69.0124585133       35.9302855030       33.8454219342
H                69.9141654562       37.3111361808       34.4806673173
N                50.1621231352       23.2103883524       34.8155194691
C                51.3760103549       23.1486088246       34.0378747653
C                51.1363621371       22.3926259508       32.7461878999
O                51.6843333505       22.8003272361       31.7258163564
C                52.5628244794       22.5375078685       34.7955098782
C                52.9759734907       23.4533170282       35.9492382993
C                53.7440846299       22.3221577960       33.8525276904
C                53.8750178987       22.7298076731       36.9419385829
H                50.1240569592       22.6615672451       35.6650390628
H                51.6509674451       24.1661197082       33.7226608814
H                52.2285393064       21.5763900722       35.1965989159
H                53.4860912357       24.3279138549       35.5418054829
H                52.0756863744       23.7821216189       36.4652075013
H                54.5899791612       21.9116313760       34.3940154492
H                53.4914383304       21.6404006423       33.0463009788
H                54.0423933497       23.2713086092       33.4125435139
H                54.0126191399       23.3289665403       37.8371407810
H                53.4031426293       21.7891472310       37.2156706766
H                54.8510961425       22.5163811862       36.5169362947
N                49.3218790765       24.5726943157       30.5541645851
C                50.3334340323       25.5359246653       30.1699933277
C                51.2980715278       24.9470822413       29.1488700172
O                51.5676771209       25.6278285527       28.1516724520
C                51.0795445822       26.0351631730       31.4230442784
C                50.3287058081       27.1699101061       32.1337304951
C                52.5198416016       26.4163036711       31.1000014563
C                50.2889951780       28.4918352204       31.3794187894
H                49.3291534645       24.3299918144       31.5418963614
H                49.8638868918       26.3821493283       29.6484877833
H                51.1067683137       25.1947437691       32.1191738038
H                49.3122696651       26.8352266545       32.3458878202
H                50.8295998198       27.3365221642       33.0897413229
H                53.0008553815       26.8237326197       31.9840029065
H                53.0780029053       25.5403557113       30.7796806691
H                52.5503190188       27.1546047737       30.3045567028
H                49.7656173136       29.2384784349       31.9708942140
H                51.2930330364       28.8588477887       31.1942878809
H                49.7772446698       28.4019393121       30.4255284380
H                60.0219298549       34.3420459668       25.7825863150
H                54.0769125987       39.9897778915       40.0764888331
H                57.0917868725       40.9415682504       41.0480972074
H                54.3433563421       41.2861394819       44.5614608807
H                58.7325433852       41.6454342943       47.0065121521
H                68.8924001409       39.8829157839       35.8983939181
H                65.5826372690       39.6265523232       35.1922846677
H                50.0137687303       24.0596347704       35.0739212726
H                50.5455948917       21.5857988239       32.7412839146
H                48.5057435485       24.9048136757       30.3708082909
H                51.6900787433       24.0391183915       29.2969645498
