 498 
 
N                41.4086190470       62.8219896854       32.1757490786
C                42.2138563006       62.0707859281       31.2365384910
C                41.3531588141       61.0593357895       30.4858864399
O                41.6323503681       60.7196662540       29.3386559771
C                43.3290571604       61.2818498328       31.9229469340
C                44.2446209957       62.0836018220       32.8507925404
C                45.1414761303       61.0916199433       33.5886684351
C                45.0828410994       63.0941486945       32.0800743958
H                41.5725936402       62.6797437969       33.1678668133
H                42.6217873393       62.7552180904       30.4817305088
H                42.8617827900       60.4801255866       32.4977831376
H                43.9370984015       60.8356802670       31.1335897950
H                43.6382014910       62.6110840266       33.5889698949
H                45.8591927410       61.6119154590       34.2155435005
H                44.5390166573       60.4398975442       34.2172090013
H                45.6839716464       60.4729752298       32.8783327991
H                45.6864950504       63.6768925909       32.7702902560
H                45.7488604949       62.5787980362       31.3934831966
H                44.4570798464       63.7768248471       31.5112109265
N                39.6104944495       62.6863635700       28.1629594440
C                40.4692756494       62.6788533741       26.9957267760
C                40.3848249574       61.3190884500       26.3075693406
O                40.3853434889       61.2512889270       25.0823706725
C                41.9332793105       62.9718067844       27.3404927776
C                42.7389003049       63.2607098981       26.1018477978
C                42.6425485975       64.5120892055       25.5023661549
C                43.5742804078       62.3082523194       25.5357594948
C                43.4419250928       64.8462873821       24.4255435691
C                44.3502514161       62.6282572526       24.4315373640
C                44.3209563031       63.9089897466       23.9105678684
H                40.0338777127       62.8574545344       29.0704803058
H                40.0882551981       63.4122352985       26.2695721189
H                41.9677368745       63.8374384945       28.0058978648
H                42.3316768501       62.1043507177       27.8665133803
H                41.9298049978       65.2259299041       25.8883907391
H                43.6056075462       61.3091863522       25.9482246666
H                43.3717945358       65.8296447874       23.9849469923
H                44.9812307495       61.8876196897       23.9620390425
H                44.9648763700       64.1580017610       23.0822402271
N                38.7850182992       61.6720982001       23.0191858242
C                39.4989305572       60.9985853485       21.9638355782
C                38.7921501259       59.7334051178       21.5149906948
O                38.8240117032       59.4502067202       20.3201004121
C                40.9344897193       60.6251249750       22.3183208428
C                41.9714461352       61.7693837679       22.3305964534
C                43.0760726615       61.4534335653       21.3280836584
C                41.4355618424       63.1651767929       22.0383111013
H                39.2088197892       61.6108335799       23.9406675627
H                39.5370297663       61.6314492791       21.0670033127
H                40.9193854123       60.1348505015       23.2870129223
H                41.2419031595       59.8971074211       21.5697844320
H                42.4098326071       61.8079327078       23.3287684200
H                43.8494073266       62.2137666671       21.3677456506
H                43.5201604865       60.4878211220       21.5480758723
H                42.6785352112       61.4272509757       20.3147765625
H                42.2597484084       63.8676409824       22.1285883286
H                41.0545985669       63.2348168076       21.0231218652
H                40.6596098915       63.4530774016       22.7410765204
N                38.9198008526       61.3985842934       13.0068948765
C                40.2107115961       61.6084192212       12.3926484483
C                40.7394305643       60.3271352714       11.7582375983
O                41.3188022234       60.3373916486       10.6846409933
C                41.2191996048       62.2260746130       13.3467960409
C                42.0986951637       63.3053666495       12.6703200832
O                42.6017005452       64.1444720439       13.4582428492
O                42.2317799591       63.2863730620       11.4419883447
H                38.8260106080       61.3577347000       14.0156387545
H                40.0582684424       62.2929656220       11.5439596913
H                40.6847339588       62.6999806889       14.1698467666
H                41.9287806273       61.4985547843       13.7451031220
N                40.4878864262       59.1849061723       12.4298846947
C                41.0785345824       57.9440810900       11.9744241073
C                40.2607442120       56.7463260053       12.4599244979
O                40.5588038568       56.0422867793       13.4033125949
C                42.5319044289       57.8865537369       12.4773472912
O                43.0938958788       56.6041519287       12.3074229355
H                40.1095959286       59.1564975075       13.3700985999
H                41.0614538111       57.9647976497       10.8781459661
H                43.1133281626       58.6477287495       11.9531142940
H                42.5176056523       58.1502301725       13.5403762679
H                43.9863518059       56.7107719885       11.9653278299
N                57.6658787582       56.2020948650       20.6687995632
C                57.9534881230       57.3475440883       19.8509969038
C                59.0803317141       57.0929844906       18.8277005139
O                59.2533348122       57.8675914642       17.8954382906
C                58.3712256359       58.5508574988       20.7095877182
C                57.5941863562       58.6925833872       21.9909473270
C                58.2857176944       58.9562446807       23.1656955353
C                56.2230144607       58.5062006277       22.0760661348
C                57.6311768360       59.2170274900       24.3547897363
C                55.5732222947       58.6468834382       23.2945267421
C                56.2552852719       59.1002713424       24.4084595410
H                58.2087422170       56.1022007034       21.5219003594
H                57.0499838749       57.5817675932       19.2753464673
H                59.4297031276       58.4464078720       20.9610945385
H                58.2647677775       59.4353086613       20.0754166694
H                59.3631998465       58.9473806492       23.1411174819
H                55.6628678806       58.2498596744       21.1887546043
H                58.2002666127       59.4683836932       25.2384348435
H                54.5317340087       58.3851213490       23.3910423339
H                55.7205533908       59.3484605303       25.3124498767
N                51.1571052462       51.8779036287       14.4793094328
C                50.3595643100       52.9003411140       15.1171182138
C                49.3400078878       52.3330879095       16.1111982111
O                49.1512731794       52.8934886552       17.1812082463
C                49.6786297280       53.7730600200       14.0532968991
C                49.3161292198       55.1555557371       14.5795886487
S                50.6842048826       56.3498828500       14.5261357707
C                51.7890490767       55.6718780207       15.8348184106
H                51.5424426880       52.1391325213       13.5745463735
H                51.0368249695       53.5183993473       15.7088172514
H                50.3383660474       53.8769193465       13.1863246867
H                48.7659117394       53.2677702798       13.7397748546
H                48.5452201763       55.6198894483       13.9619058955
H                48.9492230353       55.0822191244       15.6022975295
H                52.4415454219       56.5015832845       16.0751523999
H                51.1652846596       55.3796206741       16.6781992077
H                52.3653313475       54.8579406934       15.4079386143
N                52.3048738002       60.3216332389       30.6711657896
C                50.8981497697       60.0999841707       30.3946164392
C                50.4217054832       61.1072864780       29.3603891142
O                49.8961185429       60.6807456714       28.3285091417
C                50.0703461202       60.1784104581       31.6898275440
C                48.5831246792       60.4002291828       31.4212024478
C                50.2579857151       58.9010860918       32.5018125490
H                52.5286781492       60.5215347715       31.6419380923
H                50.7616818358       59.1160983778       29.9242222852
H                50.4489315986       61.0323138048       32.2549244433
H                48.0809636726       60.6453603352       32.3537891834
H                48.4166127008       61.2165788973       30.7264054426
H                48.1338998077       59.5046118332       31.0006724822
H                49.7691081466       59.0017979193       33.4669562525
H                49.8156466110       58.0577669260       31.9767396440
H                51.3134766210       58.7031610530       32.6564232220
N                50.5983341104       62.3970624526       29.6063470866
C                50.0944236008       63.4057147862       28.6934668973
C                50.8442840522       63.2898958192       27.3748859221
O                50.2558569478       63.4455712906       26.3085067529
C                50.1822191824       64.8301980739       29.2712754110
C                49.0444415022       65.2074864329       30.2419340075
C                50.1658682618       65.8627551759       28.1428374299
C                48.2961837448       64.0671878755       30.9119147604
H                50.9171943148       62.7176816045       30.5214683456
H                49.0561382631       63.1657916173       28.4358856071
H                51.1340288940       64.8925446632       29.8048255724
H                49.4746067375       65.8341535483       31.0252944125
H                48.3247831302       65.8162011165       29.6923479007
H                50.1329419956       66.8673038214       28.5564146366
H                51.0354146821       65.7805301867       27.4980499731
H                49.2760967305       65.7137062829       27.5344964105
H                47.5398316466       64.4965574430       31.5604784415
H                47.7976223834       63.4296521081       30.1861436782
H                48.9667216090       63.4640130102       31.5114718366
N                52.1366840124       63.0037315329       27.4294600915
C                52.8248032811       62.7265599913       26.1914133304
C                52.1383542650       61.5354066493       25.5478795636
O                51.7668787156       61.5941160829       24.3838039925
C                54.3139778769       62.4479873228       26.3589503565
C                55.0841063534       63.6526116523       26.9078241216
C                56.5612720687       63.3134697559       27.0749291138
C                54.9208887768       64.8719783672       26.0117737857
H                52.6368925084       62.8680769960       28.3021985087
H                52.6658076109       63.5745959454       25.5124390975
H                54.4305184277       61.6040737578       27.0394808143
H                54.7106442538       62.1650338563       25.3795836338
H                54.6743103475       63.8834993873       27.8896916690
H                57.0910821155       64.1638963294       27.4972065383
H                56.6842586531       62.4659633549       27.7440582226
H                57.0092010946       63.0741242403       26.1139104848
H                55.5732069947       65.6673336413       26.3615210041
H                55.1898442895       64.6129728182       24.9913022893
H                53.8926868176       65.2237671682       26.0352655018
N                51.9641224725       60.4493313881       26.2877845416
C                51.3956927768       59.2495360364       25.7092599418
C                50.0243505386       59.5673372184       25.1010099488
O                49.6523170952       59.0130106691       24.0748196743
C                51.3671110221       58.1258044977       26.7668026706
O                50.1448389404       58.0215367029       27.4422981309
H                52.3433875488       60.3842759475       27.2273657711
H                52.0139505145       58.9067831987       24.8674902352
H                51.5310482395       57.1578408309       26.2988147724
H                52.1928445034       58.3087388803       27.4626853848
H                49.9660762427       58.8766606249       27.8709333979
N                49.3128081045       60.5236737891       25.7095901959
C                48.0006053943       60.8719088957       25.2043154086
C                48.1088772623       61.8287381842       24.0169809393
O                47.2372060808       61.8168284071       23.1421057857
C                46.9821987891       61.4603498470       26.2112510867
C                46.8457979609       60.6131722950       27.4705502022
C                47.2244137658       62.9397352641       26.5134336446
H                49.5558271313       60.8092061210       26.6541633079
H                47.5745503344       59.9416953580       24.8008511030
H                46.0300212671       61.3933237556       25.6846586518
H                46.1188610870       61.0660216163       28.1414399643
H                46.4845992502       59.6241307800       27.2011796990
H                47.7921507275       60.5173717466       27.9889941906
H                46.6518916861       63.2575678361       27.3818477915
H                48.2737138783       63.1415747188       26.6791894108
H                46.9024930593       63.5441437012       25.6688397046
N                49.1612182150       62.6346086938       23.9809954002
C                49.4318754998       63.5014752000       22.8551373922
C                50.0388708688       62.7241799801       21.6947809435
O                49.8677390217       63.1162784145       20.5436723939
C                50.3880378403       64.6511097310       23.2321764728
C                50.9031618769       65.3946702082       22.0010747708
C                49.6844042925       65.6316040601       24.1608503581
H                49.7526234814       62.7308702091       24.8030973982
H                48.4761504632       63.8985366237       22.4901313482
H                51.2324311423       64.1830738060       23.7452068076
H                51.5031031051       66.2455258201       22.3097674178
H                51.5057805663       64.7499494570       21.3691510325
H                50.0731003586       65.7645206491       21.4040513746
H                50.3654411345       66.4233007444       24.4602768669
H                48.8403850082       66.0807841672       23.6446283222
H                49.3268423054       65.1154908959       25.0435282355
N                50.7848371200       61.6671437564       21.9958205796
C                51.3096168710       60.8298634371       20.9397364787
C                50.1152424211       60.0458757967       20.4292232136
O                49.8828211284       59.9989507813       19.2286680774
C                52.5164589735       59.9366291860       21.2848472980
C                53.5310237830       60.7687972395       22.0612500580
C                52.1121720175       58.6422392549       21.9832155271
H                50.9987693900       61.4435729527       22.9596918683
H                51.6140794912       61.4945389356       20.1174901141
H                52.9504611948       59.6591468944       20.3163970450
H                54.4669950171       60.2534315421       22.2338793424
H                53.7475829203       61.6668917736       21.4902676513
H                53.1302159460       61.0400884421       23.0296553692
H                52.9916051285       58.0628253342       22.2422927900
H                51.5386310637       58.8334372492       22.8820420387
H                51.5029922033       58.0351065846       21.3193334879
N                49.2845657422       59.5086433641       21.3208803557
C                47.9802786659       59.0456611051       20.8847915160
C                47.3853155577       60.1101537808       19.9654707260
O                46.9759872354       59.8134450851       18.8563617610
C                47.0863140017       58.7916451726       22.0941076014
C                45.6358914044       58.4317982107       21.7598449696
C                45.5586182097       57.2916629299       20.7519440423
C                44.9297223306       58.0594513246       23.0632669461
H                49.5069609989       59.4338657727       22.3083856428
H                48.0733693388       58.1385774386       20.2705435706
H                47.5202955321       57.9850023250       22.6783321571
H                47.0856303935       59.6912170611       22.7049582706
H                45.1527755166       59.3146973011       21.3268220571
H                44.5499105177       56.8922812234       20.7120008616
H                45.8429015866       57.6471203938       19.7656927208
H                46.2343958108       56.4962317922       21.0446653195
H                43.8701456610       57.8831954654       22.9002688990
H                45.3646223973       57.1564427275       23.4842996617
H                45.0399642566       58.8627546181       23.7872635855
N                47.3599532753       61.3680551243       20.4532270272
C                46.5981055125       62.3594161186       19.7192700210
C                47.2528748933       62.6852924128       18.3754921339
O                46.5873980203       63.0470559866       17.4038770516
C                46.3558278228       63.6466616718       20.5050542701
C                45.1048624085       64.3496081507       19.9665918018
O                44.3755958468       63.8625849606       19.1212287183
N                44.8389898971       65.5458045194       20.5167932735
H                47.3945842548       61.5031300852       21.4669954948
H                45.6096555659       61.9398461932       19.4899657460
H                46.1869607208       63.3765609685       21.5508816362
H                47.2185899944       64.3099719990       20.4330501148
H                44.0217968929       66.0351515087       20.1813239520
H                45.3982808358       65.9522275239       21.2446977954
N                48.5749463977       62.5987003544       18.3457673954
C                49.3829193469       62.9216963165       17.1875296818
C                49.2703205789       61.7825625580       16.1708092995
O                48.9676754697       62.0067553138       15.0022303894
C                50.8117807613       63.1688853410       17.6607384252
C                51.7508265538       63.7944088777       16.6233407118
C                52.7361019864       64.6996862752       17.3601141724
C                52.4642041225       62.7165702140       15.8132213308
H                49.0829970474       62.4428521601       19.2154909354
H                48.9576123135       63.8108669714       16.7025253741
H                50.7305468494       63.8355768751       18.5193240337
H                51.2292501496       62.2179219872       17.9973662185
H                51.1503004505       64.3962383437       15.9346226840
H                53.5467418378       65.0065309954       16.7108404833
H                52.2114464062       65.5791840301       17.7182159954
H                53.1532095062       64.1724906723       18.2100490979
H                53.3050611925       63.1331722432       15.2674796705
H                52.8218816506       61.9220035292       16.4614047743
H                51.7673465716       62.2805847699       15.1032978211
N                49.5050193882       60.5787432448       16.6957827614
C                49.2159488350       59.2995939048       16.0970368856
C                47.7250164855       59.1171601442       15.8170447733
O                47.2696907453       58.0529333249       15.4203130557
C                49.5773261277       58.2015194065       17.0963644459
C                51.0236621918       58.2262590761       17.4485113285
N                51.9668907957       58.8824213314       16.7145192069
C                51.6322120267       57.5917897790       18.4993125022
C                53.1126176178       58.6487612318       17.2961341802
N                52.9677926702       57.8618220533       18.3901465353
H                49.6826620428       60.4981661431       17.6962546173
H                49.7940547753       59.1697221950       15.1778356919
H                48.9723902743       58.3548986932       17.9905525303
H                49.2865319791       57.2470685373       16.6561561117
H                51.2315723268       56.9885761000       19.2828753277
H                54.0539837899       59.0132293064       16.9400427421
H                53.6754657018       57.5363271677       19.0331739252
N                46.9750809585       60.1764572867       16.1597444882
C                45.5356710890       60.0575790814       16.1502266122
C                44.9791138443       60.8794550984       14.9754884203
O                44.3279197990       60.4244978864       14.0442604152
C                44.7907232932       60.4536988415       17.4314553770
C                43.3920234932       60.7277851215       17.0332254836
N                42.7681554176       59.8945342109       16.1454613977
C                42.6373860880       61.8459929371       17.2201847558
C                41.6819812218       60.5228874911       15.7725451085
N                41.5480630424       61.6952806894       16.4162214801
H                47.5037925173       60.9056056086       16.6286862302
H                45.3733189124       59.0051884514       15.9489406521
H                44.8720536955       59.6543922472       18.1628179687
H                45.1873600556       61.3742963444       17.8319735521
H                42.8076732770       62.7054438854       17.8328781001
H                40.9902924621       60.1424712269       15.0519454526
H                40.8128686726       62.3653941408       16.2522835642
N                45.3339934916       62.1618049716       15.1354968453
C                45.4691218618       63.1222122997       14.0750759600
C                46.0771531815       62.4547840198       12.8395874377
O                45.8429475805       62.9114016798       11.7230029152
C                46.3919793037       64.2523130057       14.5567480136
C                46.5946042729       65.3501767206       13.5135079015
C                45.3777707337       66.2820256218       13.3742100996
N                45.2752502993       66.8219026349       12.0296186031
C                44.4530275737       66.3581737920       11.0822174250
N                43.3190828912       65.7555247996       11.3874547245
N                44.6792634886       66.7028601792        9.8124055011
H                45.8318975990       62.3840545554       15.9897537652
H                44.4886161492       63.5062991814       13.7734365918
H                45.9829186631       64.6703287267       15.4787160175
H                47.3457978149       63.7737230420       14.7908900998
H                47.4785220773       65.9243982770       13.7895473459
H                46.7755056550       64.8603927149       12.5563220659
H                44.4735361027       65.7256017910       13.6102758176
H                45.4524939359       67.1159685702       14.0731569145
H                46.1116964768       67.2834769749       11.6950546416
H                43.1914168751       65.3354312654       12.3171933709
H                42.8516819058       65.1928675995       10.6870980932
H                45.5293745851       67.1660314491        9.5452838308
H                44.0446505166       66.3689603140        9.1041123776
N                46.9698851865       61.4877893040       13.0950696339
C                47.5819072647       60.6439893234       12.0963454761
C                46.5866582351       59.5106164513       11.6506534808
O                46.2024895252       59.5632322695       10.4676760365
C                48.8475346026       59.9993491136       12.6597357682
O                49.6087599246       59.4329958348       11.6187860505
O                46.2868510288       58.6567682917       12.5040524729
H                46.9738322177       61.0896120370       14.0232447341
H                47.7923156667       61.2482872300       11.2088600213
H                49.4359670638       60.7566078381       13.1986810448
H                48.5199324927       59.2172281185       13.3600488753
H                50.3052121856       58.8876258414       12.0144297025
N                56.8212539359       65.1935113764       11.5416807962
C                56.2844508147       65.4208098254       12.8698519445
C                56.8022151552       64.3643473914       13.8450107729
O                57.0507381676       64.6723978433       15.0005664788
C                54.7469514023       65.4360406088       12.9047056471
C                54.2572849510       65.5882990610       14.3412800718
C                54.1920679562       66.5909848010       12.0783188920
H                56.1877207928       65.0578278780       10.7671463128
H                56.6531047032       66.3881662871       13.2368931888
H                54.3957697652       64.4726146709       12.5257323556
H                53.1716830320       65.5624884867       14.3598928501
H                54.6435993498       64.7879866932       14.9646327729
H                54.5805053935       66.5330721569       14.7720074443
H                53.1060894254       66.5532642841       12.0751187556
H                54.4890321179       67.5338401028       12.5306967242
H                54.5426662916       66.5685452877       11.0525136759
N                56.8786715817       63.0915486546       13.4266538423
C                57.4698443543       62.0882290406       14.2933258532
C                58.9174012953       62.4195223755       14.6747313050
O                59.3001102585       62.1823091534       15.8168824338
C                57.4413584887       60.7016521466       13.6626141857
H                56.8727937991       62.8694090383       12.4436328086
H                56.9139849569       62.0839148637       15.2408150682
H                57.8325618544       59.9862549258       14.3820019774
H                56.4305674318       60.4059677197       13.3965068669
H                58.0909035006       60.6862970135       12.7914626951
N                60.1303166409       65.3959917172       14.7851067260
C                59.9109552346       66.5774507003       15.5897862639
C                59.4494953784       66.2362376476       17.0077726071
O                59.8147401064       66.9401727548       17.9435132266
C                58.8129028774       67.4379509908       14.9441800995
C                58.6244287757       68.7999724433       15.6200658228
C                59.5491988292       69.8972597386       15.0883607476
N                60.9479673314       69.6430774036       15.3705226239
C                61.7892577947       68.9874291469       14.5796815301
N                61.4825144358       68.6502928470       13.3325703540
N                62.9982212415       68.6752120678       15.0482364245
H                59.5525866354       65.2976004367       13.9551731318
H                60.8591999286       67.1106230863       15.6986703137
H                59.0386912717       67.5505508242       13.8841159381
H                57.8869015240       66.8673837232       15.0326289462
H                57.6036308033       69.1404675101       15.4534233720
H                58.7656142696       68.6854362560       16.6944793035
H                59.4104773056       70.0067465886       14.0139222061
H                59.2851216399       70.8443361317       15.5592630899
H                61.2365607817       69.8032597927       16.3280593680
H                60.6021436970       68.8965632533       12.9117401469
H                62.1645129929       68.1755846812       12.7641696222
H                63.2458322470       68.8799931133       16.0023299090
H                63.6539185479       68.1561022915       14.4852835124
N                58.5916484576       65.2293726673       17.0848368900
C                57.9829436535       64.6971253851       18.2809925075
C                58.9626517357       63.7768974160       18.9862655799
O                58.9031692573       63.5915892886       20.1930645926
C                56.7185241618       63.9154532319       17.9135176263
C                56.0679533590       63.1150959073       19.0491122944
C                55.3269757385       64.0092197463       20.0356675704
C                55.1121042618       62.1019063071       18.4243880497
H                58.3215456495       64.7868604568       16.2120750656
H                57.7182903253       65.5029860755       18.9750800385
H                55.9989254965       64.6283209436       17.5096537858
H                56.9958996728       63.2182971672       17.1237203298
H                56.8358242318       62.5678838478       19.6027701800
H                54.6785204831       63.4052390675       20.6657095093
H                56.0295684580       64.5346783117       20.6716178759
H                54.7137719518       64.7382767585       19.5157945017
H                54.4988002314       61.6243526739       19.1843231998
H                54.4470052453       62.5922145287       17.7237075854
H                55.6740038988       61.3464206227       17.8831943210
N                59.8819119593       63.2076303942       18.2038547838
C                60.9166942902       62.3545459060       18.7584554988
C                61.9547952642       63.2829437194       19.3704208671
O                62.3602266614       63.1090304253       20.5145165544
C                61.4958826558       61.4395986384       17.6872630538
C                62.3938733276       60.3272697528       18.1660906555
C                62.9719055258       59.5130165610       17.1951373911
C                62.6615546622       60.0543926429       19.4997935634
C                63.8111283994       58.4744477874       17.5448526961
C                63.4839360771       58.9939841343       19.8516334298
C                64.0639082510       58.2024751713       18.8791756824
H                59.7073050459       63.1006599714       17.2090376244
H                60.5009798485       61.7475034448       19.5721609168
H                60.6480448244       60.9814600383       17.1718172431
H                62.0386990324       62.0458922538       16.9554717094
H                62.7570510953       59.6959670795       16.1504894275
H                62.2412317651       60.6723494016       20.2770973027
H                64.2698759956       57.8761399630       16.7742376099
H                63.6810452770       58.7866900506       20.8918635518
H                64.7030220384       57.3749869214       19.1488714709
N                61.1853063258       66.4943122197       20.1736538079
C                60.4507435310       67.1381814170       21.2516062275
C                60.3678110540       66.1870972783       22.4365459898
O                60.7039998938       66.5668174562       23.5517942304
C                59.0638300887       67.6040283915       20.7799000580
C                58.0402112133       67.6852265761       21.8802294829
C                57.7575767590       68.8745335837       22.5402932546
C                57.3039042427       66.5551840034       22.2057363010
C                56.7507452842       68.9323613590       23.4843042803
C                56.2932090059       66.5977318881       23.1444994484
C                56.0049786169       67.7958012064       23.7879903264
O                55.0106495855       67.9210021502       24.7078243760
H                60.7691814931       66.5621539870       19.2460300433
H                61.0207988912       68.0003779682       21.6239626604
H                59.1682575546       68.5790974068       20.3070570187
H                58.7088171004       66.8979838950       20.0314227563
H                58.3165169339       69.7688080796       22.3102180786
H                57.5230779236       65.6239274946       21.7069032137
H                56.5055313433       69.8539474150       23.9892860506
H                55.7197223473       65.7049463345       23.3449777060
H                54.5449423495       67.0817942471       24.8221127668
N                59.9179387658       64.9580970000       22.2108485829
C                59.8268510448       64.0346449237       23.3164012895
C                61.1904511517       63.8768559747       23.9637717015
O                61.3021697851       63.9304749825       25.1834058115
C                59.3561336550       62.6244483896       22.9299467337
C                59.8251490325       61.6398834813       23.9948007217
C                57.8408556365       62.5348541167       22.7993261627
H                59.6480792137       64.6167418545       21.2937576759
H                59.1617337357       64.4584515231       24.0840542693
H                59.8147657930       62.3645612978       21.9731510820
H                59.5053194159       60.6519806044       23.7223739879
H                60.9056256868       61.6259524685       24.0883428304
H                59.3832745989       61.8880588609       24.9564188048
H                57.5671684368       61.5627299383       22.3973680335
H                57.3779831383       62.6465141864       23.7759182127
H                57.4649688318       63.3009262041       22.1335179957
H                41.5357877101       63.7030256227       32.0430697350
H                40.5483436323       60.6625012443       30.9272421546
H                38.9873722815       63.3295497699       28.0733476365
H                40.3291192513       60.4841859303       26.8551409405
H                38.7211098509       62.5489329315       22.8266330674
H                38.3201695421       59.1599457760       22.1846015607
H                38.3626180206       62.0645270164       12.7701089362
H                39.4140154815       56.4957585847       11.9905989981
H                56.8047486466       56.2274674610       20.9292053278
H                59.6724511006       56.2929902129       18.9246736430
H                51.8552230006       51.6684833291       15.0073006629
H                48.8286980968       51.5040790374       15.8846886362
H                52.7745718582       59.5876285179       30.4461751146
H                57.3241097122       65.8984038983       11.2961963754
H                59.5332186713       62.8222880483       13.9975690112
H                60.9817356952       65.3848560398       14.4936250100
H                62.3166205698       64.0483938078       18.8382849724
H                62.0042664776       66.8615393359       20.1069566203
H                61.9997204473       63.7288666154       23.3952804028
