 535 
 
N               133.8470000000       63.9670000000      131.2660000000
C               133.3230000000       64.0180000000      129.8950000000
C               133.7100000000       65.3630000000      129.2590000000
O               134.1260000000       65.4110000000      128.1110000000
C               131.7890000000       63.8510000000      129.9060000000
H               133.2560000000       63.7470000000      131.8510000000
H               133.7040000000       63.2940000000      129.3740000000
H               131.4530000000       63.8860000000      128.9970000000
H               131.5590000000       62.9960000000      130.3020000000
H               131.3890000000       64.5660000000      130.4260000000
N               137.0030000000       65.2980000000      128.3160000000
C               137.0310000000       64.5320000000      127.0700000000
C               136.8070000000       65.4610000000      125.9260000000
O               137.5700000000       65.5040000000      124.9710000000
H               136.4280000000       65.0220000000      128.8930000000
H               137.8840000000       64.0800000000      126.9730000000
H               136.3460000000       63.8450000000      127.0830000000
N               135.7160000000       66.2250000000      126.0290000000
C               135.3570000000       67.2100000000      125.0110000000
C               136.5380000000       68.1770000000      124.7950000000
O               136.8700000000       68.5100000000      123.6730000000
C               134.1190000000       68.0280000000      125.4240000000
C               132.9080000000       67.1340000000      125.6940000000
C               133.7200000000       68.9550000000      124.2720000000
C               131.7250000000       67.8860000000      126.2610000000
H               135.1670000000       66.1850000000      126.6890000000
H               135.1510000000       66.7300000000      124.1940000000
H               134.3560000000       68.5150000000      126.2290000000
H               132.6420000000       66.7010000000      124.8670000000
H               133.1640000000       66.4320000000      126.3120000000
H               132.9400000000       69.4720000000      124.5280000000
H               134.4540000000       69.5560000000      124.0710000000
H               133.5120000000       68.4250000000      123.4870000000
H               130.9910000000       67.2700000000      126.4110000000
H               131.9770000000       68.2990000000      127.1020000000
H               131.4470000000       68.5730000000      125.6350000000
N               138.9730000000       66.6070000000      122.7490000000
C               138.5030000000       66.5210000000      121.3570000000
C               138.8230000000       67.8170000000      120.6360000000
O               139.3000000000       67.8020000000      119.5000000000
C               137.0040000000       66.2640000000      121.3220000000
H               138.3470000000       66.5500000000      123.3360000000
H               138.9530000000       65.7850000000      120.9140000000
H               136.7060000000       66.2090000000      120.4000000000
H               136.8080000000       65.4290000000      121.7750000000
H               136.5410000000       66.9900000000      121.7690000000
N               138.5090000000       68.9390000000      121.2760000000
C               138.7460000000       70.2520000000      120.6920000000
C               140.2280000000       70.5770000000      120.6040000000
O               140.6840000000       71.1720000000      119.6150000000
C               138.0510000000       71.3050000000      121.5670000000
C               136.5830000000       70.9590000000      121.8450000000
C               135.9860000000       71.8700000000      122.8950000000
O               136.2030000000       71.6740000000      124.1070000000
N               135.1670000000       72.8130000000      122.4550000000
H               138.1540000000       68.9590000000      122.0590000000
H               138.3920000000       70.2410000000      119.7890000000
H               138.5260000000       71.3870000000      122.4080000000
H               138.0990000000       72.1680000000      121.1280000000
H               136.0710000000       71.0320000000      121.0240000000
H               136.5170000000       70.0370000000      122.1400000000
H               135.0450000000       72.9150000000      121.6100000000
H               134.7580000000       73.3220000000      123.0130000000
N               142.7900000000       68.2710000000      120.4530000000
C               143.3340000000       67.3910000000      119.4090000000
C               142.8820000000       67.8710000000      118.0120000000
O               143.7010000000       68.0950000000      117.1160000000
C               142.9150000000       65.9240000000      119.6560000000
O               143.3380000000       65.4850000000      120.9830000000
C               143.5190000000       65.0060000000      118.6170000000
H               142.2650000000       67.8770000000      121.0080000000
H               144.3020000000       67.4320000000      119.4440000000
H               141.9480000000       65.8820000000      119.5940000000
H               142.8040000000       65.7820000000      121.5600000000
H               143.2430000000       64.0930000000      118.7920000000
H               143.2160000000       65.2720000000      117.7350000000
H               144.4860000000       65.0640000000      118.6570000000
N               141.5810000000       68.1110000000      117.8440000000
C               141.0200000000       68.6150000000      116.5700000000
C               141.6440000000       69.9480000000      116.2340000000
O               141.8140000000       70.2870000000      115.0440000000
C               139.5220000000       68.8270000000      116.7030000000
C               138.7060000000       67.5880000000      116.4850000000
C               137.2600000000       67.7760000000      116.8040000000
O               136.5570000000       68.5330000000      116.1120000000
O               136.8040000000       67.1230000000      117.7520000000
H               140.9930000000       67.9890000000      118.4600000000
H               141.2060000000       67.9630000000      115.8760000000
H               139.3320000000       69.1760000000      117.5880000000
H               139.2430000000       69.5030000000      116.0650000000
H               138.7940000000       67.3080000000      115.5610000000
H               139.0620000000       66.8720000000      117.0340000000
N               145.2160000000       69.3850000000      115.0030000000
C               145.0840000000       68.9000000000      113.6390000000
C               144.7830000000       69.9970000000      112.6390000000
O               145.3140000000       69.9650000000      111.5460000000
C               144.0550000000       67.7720000000      113.5690000000
C               144.4840000000       66.4810000000      114.2220000000
C               143.2540000000       65.6160000000      114.4790000000
C               145.4710000000       65.7170000000      113.3270000000
H               144.6350000000       69.0560000000      115.5450000000
H               145.9490000000       68.5460000000      113.3820000000
H               143.2340000000       68.0740000000      113.9880000000
H               143.8500000000       67.5960000000      112.6370000000
H               144.9270000000       66.6880000000      115.0600000000
H               143.5250000000       64.7850000000      114.8990000000
H               142.6420000000       66.0890000000      115.0640000000
H               142.8120000000       65.4240000000      113.6370000000
H               145.7330000000       64.8920000000      113.7650000000
H               145.0470000000       65.5120000000      112.4790000000
H               146.2570000000       66.2640000000      113.1710000000
N               135.8030000000       57.0760000000      128.4330000000
C               135.3100000000       58.1580000000      129.3140000000
C               134.1110000000       57.6040000000      130.0490000000
O               133.1330000000       57.1900000000      129.4310000000
C               135.0140000000       59.4390000000      128.5880000000
C               136.2610000000       59.9370000000      127.8300000000
C               134.5440000000       60.4970000000      129.5530000000
C               137.5260000000       59.9530000000      128.6750000000
H               135.3770000000       56.9830000000      127.6920000000
H               136.0040000000       58.4170000000      129.9400000000
H               134.3090000000       59.2640000000      127.9460000000
H               136.4060000000       59.3710000000      127.0560000000
H               136.0920000000       60.8330000000      127.4990000000
H               134.3570000000       61.3170000000      129.0690000000
H               133.7370000000       60.1940000000      129.9980000000
H               135.2350000000       60.6620000000      130.2140000000
H               138.2690000000       60.2750000000      128.1400000000
H               137.3990000000       60.5390000000      129.4370000000
H               137.7180000000       59.0550000000      128.9870000000
N               130.8850000000       57.8100000000      131.8530000000
C               129.7560000000       58.7220000000      131.8890000000
C               128.5440000000       58.1390000000      132.5940000000
O               127.6990000000       58.8520000000      133.0740000000
C               129.3260000000       59.1580000000      130.4580000000
C               130.4930000000       59.8250000000      129.7170000000
C               128.8510000000       57.9470000000      129.6850000000
H               130.7270000000       57.0580000000      131.4660000000
H               130.0670000000       59.4900000000      132.3930000000
H               128.6050000000       59.8020000000      130.5320000000
H               130.2040000000       60.0890000000      128.8290000000
H               130.7830000000       60.6090000000      130.2090000000
H               131.2300000000       59.1990000000      129.6440000000
H               128.5830000000       58.2170000000      128.7930000000
H               129.5710000000       57.2990000000      129.6240000000
H               128.0950000000       57.5470000000      130.1420000000
N               131.6770000000       56.1680000000      127.2270000000
C               131.8290000000       56.7780000000      125.9260000000
C               133.2970000000       56.9370000000      125.6420000000
O               133.9790000000       57.7150000000      126.2930000000
C               131.1650000000       58.1710000000      125.8660000000
C               129.6740000000       58.0550000000      126.1570000000
C               131.4520000000       58.8040000000      124.5170000000
C               129.0030000000       59.3860000000      126.3980000000
H               132.0940000000       56.5950000000      127.8460000000
H               131.3990000000       56.2070000000      125.2700000000
H               131.5370000000       58.7520000000      126.5480000000
H               129.2400000000       57.6120000000      125.4110000000
H               129.5460000000       57.4910000000      126.9360000000
H               131.0360000000       59.6790000000      124.4750000000
H               132.4110000000       58.8960000000      124.4000000000
H               131.0930000000       58.2420000000      123.8130000000
H               128.0600000000       59.2460000000      126.5770000000
H               129.4150000000       59.8230000000      127.1600000000
H               129.1030000000       59.9460000000      125.6120000000
N               133.7900000000       56.1540000000      124.6900000000
C               135.2130000000       56.1280000000      124.3180000000
C               135.6050000000       57.0330000000      123.1540000000
O               134.9090000000       57.0900000000      122.1280000000
C               135.6490000000       54.7160000000      124.0120000000
C               135.2780000000       53.6990000000      125.1240000000
O               134.7790000000       54.1190000000      126.1890000000
O               135.5050000000       52.5000000000      124.9280000000
H               133.3050000000       55.6120000000      124.2310000000
H               135.6730000000       56.4820000000      125.0950000000
H               135.2440000000       54.4340000000      123.1770000000
H               136.6100000000       54.7030000000      123.8790000000
N               136.7530000000       57.6850000000      123.3240000000
C               137.3280000000       58.5710000000      122.3120000000
C               138.5080000000       57.8630000000      121.6550000000
O               139.0990000000       57.0010000000      122.2990000000
C               137.7840000000       59.9160000000      122.9610000000
C               136.6240000000       60.5930000000      123.6800000000
C               138.3800000000       60.8190000000      121.9240000000
C               136.9670000000       61.9390000000      124.2540000000
H               137.2260000000       57.6250000000      124.0390000000
H               136.6600000000       58.7780000000      121.6400000000
H               138.4670000000       59.7230000000      123.6230000000
H               135.8850000000       60.6940000000      123.0600000000
H               136.3160000000       60.0150000000      124.3950000000
H               138.6590000000       61.6500000000      122.3400000000
H               139.1490000000       60.3860000000      121.5210000000
H               137.7190000000       61.0060000000      121.2390000000
H               136.1870000000       62.3110000000      124.6950000000
H               137.6870000000       61.8430000000      124.8970000000
H               137.2490000000       62.5330000000      123.5410000000
N               138.8410000000       58.1990000000      120.4050000000
C               139.9470000000       57.5570000000      119.6990000000
C               141.1050000000       58.4920000000      119.3650000000
O               140.9360000000       59.4310000000      118.5950000000
C               139.4400000000       56.9130000000      118.4380000000
C               138.4780000000       55.7680000000      118.7230000000
O               137.3410000000       55.7780000000      118.2180000000
O               138.9020000000       54.8390000000      119.4420000000
H               138.4330000000       58.8020000000      119.9480000000
H               140.3030000000       56.8930000000      120.3100000000
H               138.9940000000       57.5800000000      117.8930000000
H               140.1910000000       56.5810000000      117.9220000000
N               142.2970000000       58.1770000000      119.8600000000
C               143.4480000000       58.9930000000      119.6110000000
C               144.3790000000       58.2700000000      118.6500000000
O               144.4580000000       57.0390000000      118.6990000000
C               144.1500000000       59.3620000000      120.9140000000
C               143.2510000000       60.1180000000      121.8680000000
C               143.9590000000       60.4570000000      123.1820000000
C               142.8120000000       61.3740000000      121.1690000000
H               142.4490000000       57.4840000000      120.3470000000
H               143.1690000000       59.8260000000      119.2000000000
H               144.4670000000       58.5540000000      121.3460000000
H               144.9310000000       59.9020000000      120.7150000000
H               142.4910000000       59.5640000000      122.1040000000
H               143.3500000000       60.9400000000      123.7630000000
H               144.2410000000       59.6380000000      123.6190000000
H               144.7350000000       61.0090000000      122.9980000000
H               142.2320000000       61.8850000000      121.7550000000
H               143.5900000000       61.9060000000      120.9410000000
H               142.3310000000       61.1430000000      120.3590000000
N               141.3070000000       63.7520000000      108.4840000000
C               139.8970000000       63.9890000000      108.6390000000
C               139.0790000000       62.8150000000      109.1190000000
O               138.2380000000       62.9840000000      110.0020000000
C               139.2930000000       64.5260000000      107.3270000000
C               139.5770000000       66.0120000000      107.0800000000
O               140.7050000000       66.3490000000      106.6690000000
O               138.6820000000       66.8420000000      107.3560000000
H               141.6030000000       63.8970000000      107.6900000000
H               139.8460000000       64.6470000000      109.3490000000
H               139.6440000000       64.0100000000      106.5840000000
H               138.3330000000       64.3860000000      107.3410000000
N               139.3700000000       61.6290000000      108.5950000000
C               138.6640000000       60.4050000000      108.9730000000
C               138.7650000000       60.2340000000      110.4960000000
O               137.8160000000       59.7620000000      111.1500000000
C               139.1810000000       59.1490000000      108.2250000000
O               138.1870000000       58.1390000000      108.2990000000
C               140.4570000000       58.6560000000      108.8240000000
H               139.9860000000       61.5090000000      108.0070000000
H               137.7350000000       60.4940000000      108.7090000000
H               139.3590000000       59.3780000000      107.2990000000
H               138.4540000000       57.4520000000      107.8960000000
H               140.7600000000       57.8720000000      108.3400000000
H               141.1310000000       59.3510000000      108.7670000000
H               140.3100000000       58.4250000000      109.7540000000
N               139.9330000000       60.5530000000      111.0510000000
C               140.1470000000       60.4740000000      112.4770000000
C               139.4070000000       61.6190000000      113.2100000000
O               138.6820000000       61.3860000000      114.1720000000
C               141.6630000000       60.5460000000      112.8100000000
C               142.4920000000       59.4240000000      112.1630000000
C               143.9460000000       59.6980000000      112.5280000000
C               142.0560000000       58.0620000000      112.5850000000
H               140.6180000000       60.8200000000      110.6050000000
H               139.7930000000       59.6230000000      112.7800000000
H               142.0100000000       61.4030000000      112.5170000000
H               141.7770000000       60.5070000000      113.7730000000
H               142.3670000000       59.4280000000      111.2010000000
H               144.5120000000       59.0120000000      112.1400000000
H               144.2080000000       60.5660000000      112.1840000000
H               144.0450000000       59.6900000000      113.4930000000
H               142.6100000000       57.3950000000      112.1490000000
H               142.1450000000       57.9770000000      113.5470000000
H               141.1290000000       57.9260000000      112.3330000000
N               139.5360000000       62.8260000000      112.6460000000
C               138.9120000000       64.0490000000      113.1710000000
C               137.4200000000       63.8930000000      113.3950000000
O               136.9020000000       64.2670000000      114.4550000000
C               139.0470000000       65.2120000000      112.2060000000
C               138.3800000000       66.5480000000      112.6850000000
C               138.2330000000       67.5740000000      111.5650000000
N               139.4890000000       68.0910000000      111.0650000000
C               139.5810000000       69.0000000000      110.1060000000
N               138.4780000000       69.4940000000      109.5560000000
N               140.7820000000       69.4150000000      109.6670000000
H               139.9980000000       62.9590000000      111.9330000000
H               139.3760000000       64.2150000000      114.0060000000
H               139.9900000000       65.3750000000      112.0470000000
H               138.6560000000       64.9570000000      111.3560000000
H               137.5050000000       66.3530000000      113.0550000000
H               138.9110000000       66.9310000000      113.4000000000
H               137.7460000000       67.1680000000      110.8300000000
H               137.6950000000       68.3140000000      111.8870000000
H               140.2170000000       67.7910000000      111.4100000000
H               137.7060000000       69.2240000000      109.8230000000
H               138.5350000000       70.0840000000      108.9330000000
H               141.5010000000       69.0900000000      110.0090000000
H               140.8310000000       70.0060000000      109.0440000000
N               136.7330000000       63.3550000000      112.3950000000
C               135.2960000000       63.1740000000      112.4450000000
C               134.8860000000       62.4990000000      113.7230000000
O               133.8730000000       62.8670000000      114.3360000000
C               134.8550000000       62.3600000000      111.1990000000
O               135.8000000000       61.3470000000      110.8700000000
H               137.0940000000       63.0830000000      111.6630000000
H               134.8540000000       64.0370000000      112.4310000000
H               133.9900000000       61.9540000000      111.3670000000
H               134.7450000000       62.9580000000      110.4430000000
H               136.1580000000       61.0580000000      111.5730000000
N               135.6510000000       61.4920000000      114.1330000000
C               135.4170000000       60.7140000000      115.3580000000
C               135.4290000000       61.6270000000      116.5550000000
O               134.4510000000       61.7330000000      117.2580000000
C               136.4960000000       59.6540000000      115.5530000000
C               136.7950000000       58.8470000000      114.2900000000
O               135.8820000000       58.6910000000      113.4470000000
O               137.9150000000       58.3340000000      114.1510000000
H               136.3440000000       61.2310000000      113.6950000000
H               134.5540000000       60.2790000000      115.2700000000
H               137.3120000000       60.0850000000      115.8530000000
H               136.2200000000       59.0470000000      116.2580000000
N               136.5460000000       62.3380000000      116.7340000000
C               136.7340000000       63.2180000000      117.8800000000
C               135.5440000000       64.1500000000      117.9680000000
O               134.9240000000       64.2800000000      119.0270000000
C               138.0220000000       64.0470000000      117.7140000000
C               139.3320000000       63.2300000000      117.6710000000
C               140.5110000000       64.1360000000      117.3980000000
C               139.5250000000       62.4790000000      118.9740000000
H               137.2130000000       62.3200000000      116.1920000000
H               136.8100000000       62.6870000000      118.6880000000
H               137.9530000000       64.5640000000      116.8960000000
H               138.0780000000       64.6810000000      118.4460000000
H               139.2720000000       62.5840000000      116.9500000000
H               141.3250000000       63.6090000000      117.3740000000
H               140.3880000000       64.5790000000      116.5440000000
H               140.5770000000       64.8010000000      118.1010000000
H               140.3500000000       61.9700000000      118.9350000000
H               139.5700000000       63.1110000000      119.7080000000
H               138.7790000000       61.8750000000      119.1130000000
N               135.2170000000       64.7880000000      116.8520000000
C               134.0890000000       65.7060000000      116.7320000000
C               132.7840000000       64.9840000000      117.1380000000
O               132.0980000000       65.4200000000      118.0800000000
C               134.0050000000       66.1970000000      115.3170000000
H               135.6580000000       64.6970000000      116.1200000000
H               134.2150000000       66.4650000000      117.3230000000
H               133.2570000000       66.8080000000      115.2300000000
H               134.8270000000       66.6570000000      115.0850000000
H               133.8770000000       65.4430000000      114.7200000000
N               132.4650000000       63.8600000000      116.4780000000
C               131.2820000000       63.0720000000      116.7820000000
C               131.0690000000       62.9260000000      118.2880000000
O               130.0260000000       63.3110000000      118.8150000000
C               131.3800000000       61.7160000000      116.0920000000
H               132.9400000000       63.5390000000      115.8370000000
H               130.5030000000       63.5390000000      116.4410000000
H               130.5900000000       61.1910000000      116.2960000000
H               131.4440000000       61.8450000000      115.1330000000
H               132.1690000000       61.2480000000      116.4080000000
N               132.1220000000       62.4730000000      118.9560000000
C               132.1490000000       62.3030000000      120.4090000000
C               131.6820000000       63.5840000000      121.1460000000
O               131.0140000000       63.4860000000      122.1500000000
C               133.6070000000       61.9330000000      120.8580000000
C               133.7130000000       61.8710000000      122.3750000000
C               134.0910000000       60.6470000000      120.1930000000
H               132.8580000000       62.2500000000      118.5720000000
H               131.5350000000       61.5900000000      120.6430000000
H               134.1990000000       62.6400000000      120.5580000000
H               134.6210000000       61.6410000000      122.6270000000
H               133.4820000000       62.7350000000      122.7510000000
H               133.1030000000       61.1970000000      122.7150000000
H               134.9920000000       60.4480000000      120.4910000000
H               133.5020000000       59.9160000000      120.4350000000
H               134.0870000000       60.7590000000      119.2300000000
N               131.9680000000       64.7670000000      120.6020000000
C               131.5380000000       66.0290000000      121.2190000000
C               130.0180000000       66.0490000000      121.3540000000
O               129.4690000000       66.3570000000      122.4240000000
C               131.9870000000       67.2090000000      120.3940000000
C               133.5050000000       67.4920000000      120.4320000000
C               133.9470000000       68.6470000000      119.5130000000
O               133.1520000000       69.1800000000      118.7250000000
N               135.2450000000       69.0510000000      119.5850000000
H               132.4120000000       64.8630000000      119.8720000000
H               131.9440000000       66.0930000000      122.0980000000
H               131.7220000000       67.0620000000      119.4730000000
H               131.5160000000       67.9990000000      120.7020000000
H               133.7640000000       67.6980000000      121.3440000000
H               133.9820000000       66.6870000000      120.1770000000
H               135.7840000000       68.6710000000      120.1370000000
H               135.5260000000       69.6860000000      119.0780000000
N               129.3200000000       65.6340000000      120.3000000000
C               127.8670000000       65.6030000000      120.3080000000
C               127.3120000000       64.4490000000      121.1320000000
O               126.2840000000       64.6050000000      121.7990000000
C               127.3030000000       65.5330000000      118.8800000000
C               127.7880000000       66.6750000000      118.0060000000
O               128.3150000000       67.6610000000      118.4970000000
N               127.5720000000       66.5500000000      116.7020000000
H               129.6760000000       65.3640000000      119.5650000000
H               127.5830000000       66.4310000000      120.7250000000
H               127.5590000000       64.6890000000      118.4760000000
H               126.3340000000       65.5470000000      118.9170000000
H               127.8060000000       67.1800000000      116.1650000000
H               127.1980000000       65.8390000000      116.3940000000
N               127.9790000000       63.2930000000      121.1320000000
C               127.5430000000       62.0990000000      121.9010000000
C               127.6440000000       62.4850000000      123.3530000000
O               126.7710000000       62.1640000000      124.1630000000
C               128.4440000000       60.8890000000      121.6500000000
C               127.9550000000       59.6220000000      122.3380000000
C               128.9910000000       58.5120000000      122.2070000000
N               129.4090000000       58.2970000000      120.8250000000
C               128.6130000000       57.8290000000      119.8900000000
N               129.0440000000       57.6940000000      118.6520000000
N               127.3550000000       57.5290000000      120.1890000000
H               128.7040000000       63.1690000000      120.6860000000
H               126.6460000000       61.8450000000      121.6340000000
H               128.5020000000       60.7290000000      120.6950000000
H               129.3410000000       61.0920000000      121.9590000000
H               127.7820000000       59.8020000000      123.2750000000
H               127.1150000000       59.3370000000      121.9450000000
H               129.7670000000       58.7330000000      122.7460000000
H               128.6240000000       57.6880000000      122.5630000000
H               130.2200000000       58.4870000000      120.6110000000
H               129.8510000000       57.9130000000      118.4510000000
H               128.5180000000       57.3870000000      118.0450000000
H               127.0650000000       57.6410000000      120.9910000000
H               126.8300000000       57.2220000000      119.5810000000
N               128.7320000000       63.1820000000      123.6690000000
C               129.0180000000       63.6550000000      125.0020000000
C               127.9120000000       64.6130000000      125.4490000000
O               127.3740000000       64.4660000000      126.5480000000
C               130.3520000000       64.3930000000      125.0130000000
C               131.5230000000       63.5530000000      125.4820000000
C               132.8110000000       64.0050000000      125.2840000000
C               131.3410000000       62.3430000000      126.1450000000
C               133.8970000000       63.2620000000      125.7350000000
C               132.4450000000       61.5950000000      126.6140000000
C               133.7150000000       62.0740000000      126.4030000000
H               129.3350000000       63.3940000000      123.0940000000
H               129.0630000000       62.8980000000      125.6060000000
H               130.5380000000       64.7180000000      124.1180000000
H               130.2750000000       65.1710000000      125.5870000000
H               132.9540000000       64.8130000000      124.8460000000
H               130.4790000000       62.0210000000      126.2820000000
H               134.7600000000       63.5740000000      125.5820000000
H               132.3130000000       60.7890000000      127.0590000000
H               134.4500000000       61.5960000000      126.7110000000
N               127.5590000000       65.5410000000      124.5660000000
C               126.4990000000       66.5230000000      124.8380000000
C               125.1680000000       65.8010000000      125.0660000000
O               124.3930000000       66.1940000000      125.9210000000
C               126.3180000000       67.4360000000      123.6190000000
C               127.4450000000       68.4160000000      123.4520000000
O               127.9860000000       68.5900000000      122.3610000000
N               127.7700000000       69.1310000000      124.5220000000
H               127.9230000000       65.6240000000      123.7910000000
H               126.7440000000       67.0290000000      125.6280000000
H               126.2470000000       66.8910000000      122.8200000000
H               125.4830000000       67.9220000000      123.7060000000
H               128.3760000000       69.7390000000      124.4660000000
H               127.3750000000       68.9860000000      125.2720000000
N               124.9270000000       64.7750000000      124.2700000000
C               123.7190000000       63.9930000000      124.3890000000
C               123.6750000000       63.3850000000      125.7940000000
O               122.6520000000       63.4510000000      126.4630000000
C               123.7190000000       62.8450000000      123.3520000000
O               123.8580000000       63.3530000000      122.0170000000
H               125.4600000000       64.5140000000      123.6470000000
H               122.9490000000       64.5620000000      124.2320000000
H               124.4450000000       62.2310000000      123.5450000000
H               122.8940000000       62.3400000000      123.4250000000
H               124.6160000000       63.7050000000      121.9280000000
N               124.7900000000       62.7710000000      126.1820000000
C               124.8980000000       62.1730000000      127.5060000000
C               124.5930000000       63.2350000000      128.5700000000
O               123.8660000000       62.9690000000      129.5050000000
C               126.3290000000       61.5910000000      127.7270000000
H               125.4930000000       62.6910000000      125.6930000000
H               124.2580000000       61.4480000000      127.5790000000
H               126.3850000000       61.1970000000      128.6120000000
H               126.5090000000       60.9110000000      127.0590000000
H               126.9840000000       62.3020000000      127.6480000000
N               125.0810000000       64.4560000000      128.3280000000
C               124.8740000000       65.5790000000      129.2410000000
C               123.3610000000       65.9490000000      129.3160000000
O               122.8570000000       66.1570000000      130.4120000000
C               125.6900000000       66.8790000000      128.8510000000
C               127.1810000000       66.6240000000      128.9070000000
C               125.3620000000       68.0200000000      129.8140000000
C               128.0360000000       67.7670000000      128.4790000000
H               125.5410000000       64.6540000000      127.6290000000
H               125.2020000000       65.2750000000      130.1020000000
H               125.4370000000       67.1200000000      127.9460000000
H               127.4200000000       66.3830000000      129.8160000000
H               127.3850000000       65.8590000000      128.3470000000
H               125.8670000000       68.8090000000      129.5650000000
H               124.4130000000       68.2170000000      129.7710000000
H               125.5970000000       67.7580000000      130.7180000000
H               128.9700000000       67.5160000000      128.5470000000
H               127.8300000000       67.9990000000      127.5600000000
H               127.8650000000       68.5310000000      129.0510000000
N               122.7200000000       66.0080000000      128.1390000000
C               121.2950000000       66.3220000000      128.0170000000
C               120.4680000000       65.1730000000      128.5670000000
O               119.3820000000       65.3910000000      129.0830000000
C               120.9040000000       66.6030000000      126.5310000000
O               121.6570000000       67.7060000000      126.0300000000
C               119.4190000000       66.8910000000      126.3420000000
H               123.1080000000       65.8650000000      127.3850000000
H               121.1140000000       67.1250000000      128.5300000000
H               121.1070000000       65.7930000000      126.0380000000
H               122.4540000000       67.4690000000      125.9070000000
H               119.2380000000       67.0570000000      125.4040000000
H               118.9010000000       66.1280000000      126.6410000000
H               119.1720000000       67.6720000000      126.8610000000
H               134.5101194225       63.3602255996      131.3117980186
H               133.6222519924       66.2086700220      129.7854432554
H               137.8101056759       65.2569431079      128.7120994314
H               137.0396452529       68.5371316165      125.5815476839
H               139.5506706917       65.9366269107      122.9130015036
H               140.8431197448       70.3111379701      121.3462567485
H               143.4659942325       68.6213365544      120.9328917548
H               141.9249113428       70.5675339072      116.9669846897
H               146.0301026684       69.1700151866      115.3208338801
H               144.1541099143       70.7357427452      112.8813972289
H               136.6619982612       57.2335723314      128.2155305823
H               134.1082830794       57.5716951197      131.0484743684
H               131.5668138636       58.1933757418      131.4078563197
H               128.4365213545       57.1474171267      132.6661924249
H               130.8049264314       56.1457535378      127.4483431404
H               144.9180818558       58.7915008101      117.9886168600
H               141.7652406505       64.2919995680      109.0393521161
H               120.8119647547       64.2359207467      128.5072444930
