 508 
 
N               187.4567973868       66.1568353517      109.5476150040
C               186.2071639188       65.8077124029      108.8965280988
C               185.0609867360       66.1973081653      109.8313840516
O               185.1696345386       66.1163413016      111.0508528025
C               186.1764343636       64.3167109116      108.5247302637
C               187.2817747951       64.0288369732      107.5006820053
C               184.8005271711       63.9638889190      107.9701519157
C               187.5210816503       62.5395002085      107.2790355482
H               187.6612570077       65.6392229820      110.3908687146
H               186.1357009929       66.4108588875      107.9870029757
H               186.3614896522       63.7357475075      109.4355235354
H               187.0042195491       64.5069397351      106.5593689731
H               188.2038008755       64.4962384169      107.8499559515
H               184.8075262904       62.9552386160      107.5686868068
H               184.0386135073       64.0289492448      108.7430444742
H               184.5341095141       64.6603765616      107.1775612047
H               188.3540258015       62.3926760953      106.5974437995
H               187.7546011846       62.0467195578      108.2194986324
H               186.6471929748       62.0623488093      106.8457608371
N               183.9656155477       66.6538069969      109.2200925741
C               182.8094690243       67.0709453581      109.9789623564
C               182.1053485732       65.8238689607      110.5536587635
O               182.2026543996       64.7347862559      110.0105417389
C               181.8737083304       67.8772040440      109.0867247817
C               182.4814402792       69.1959189354      108.6340459424
O               183.6566492016       69.4936637548      108.8140945983
N               181.6075608029       70.0030545517      108.0279715412
H               183.9298831224       66.7335720832      108.2105632625
H               183.1608293400       67.6861687061      110.8189458484
H               181.6534910706       67.3093489116      108.1798646098
H               180.9359122926       68.0828515880      109.6009644843
H               181.9219345373       70.8944013767      107.6777714598
H               180.6625071928       69.6962381991      107.8299276412
N               181.4472154397       66.0278996278      111.7041579456
C               180.6688811654       65.0014064195      112.3658726702
C               179.2352525043       65.5011167869      112.5810304322
O               178.9238631967       66.6534517009      112.3204678077
C               181.2862937620       64.5615623572      113.7247739592
O               180.8304616384       65.3332404179      114.8220681866
C               182.8086873731       64.5297610257      113.6450010537
H               181.2401464311       66.9779157757      111.9827148951
H               180.6405043036       64.1309022627      111.7038303371
H               180.9035609294       63.5565265162      113.9152277275
H               181.1640908231       66.2348759448      114.7240713035
H               183.2242240343       64.0931941669      114.5470495870
H               183.1121399449       63.9289136056      112.7934609505
H               183.2198362724       65.5266490920      113.5033320865
N               178.4389898949       64.5973511183      113.1851967164
C               177.0417232106       64.8238796500      113.4752044961
C               176.6802216026       64.6099261808      114.9493449098
O               175.5152584806       64.4626661508      115.2930480867
C               176.1348210470       63.8895808727      112.6644340691
O               176.5214752179       62.5681906181      112.9965275766
C               176.2293965256       64.1736614393      111.1749153032
H               178.7023294308       63.6227380065      113.1055942549
H               176.7837426758       65.8635379424      113.2299136627
H               175.1063940271       64.0807148472      113.0091671179
H               175.9058076165       61.9545507714      112.5756901358
H               175.5232588641       63.5617453711      110.6211000008
H               175.9941173408       65.2219489572      111.0124605797
H               177.2349793958       63.9813872229      110.8093676321
N               177.7187379577       64.5116349101      115.7876871027
C               177.6133739650       64.4705427370      117.2451233788
C               176.1488844510       64.2494927341      117.6893775281
O               175.4126323172       65.1697443978      118.0178086189
C               178.1660859440       65.7697430364      117.8442746032
C               178.5322915951       65.6437234382      119.3241043948
C               179.6941638180       64.7005605951      119.6512981060
C               181.0406426575       65.0993377670      119.0461208372
N               181.3061896561       64.4396180367      117.7334489537
H               178.6250611374       64.7794339613      115.4141142978
H               178.1985594049       63.6052898784      117.5801271296
H               179.0185057515       66.1076427111      117.2531036132
H               177.3884189634       66.5308997663      117.7364297890
H               178.7703070260       66.6427477936      119.6909777143
H               177.6455950940       65.3067262977      119.8636049091
H               179.7961912771       64.7093878581      120.7361826188
H               179.4443264133       63.6805464172      119.3654042550
H               181.0867216490       66.1811986467      118.9230265895
H               181.8358488702       64.7897851730      119.7242966540
H               182.2965127021       64.5568000077      117.4840176768
H               181.0798865836       63.4122800264      117.7861312744
H               180.7502262029       64.8397742962      116.9608886000
N               175.8036050508       62.9568079226      117.8054060637
C               174.4794531142       62.5140540252      118.1844080347
C               174.5151197414       61.9314293671      119.6047198121
O               175.5526804349       61.8758869270      120.2506355729
C               173.8868932086       61.5738340336      117.1194098765
C               174.6936833612       60.3292084928      116.8812270393
C               174.4098762672       59.1534555660      117.5680790119
C               175.7079660901       60.3143586874      115.9296435126
C               175.0922498473       57.9860519532      117.2892587314
C               176.4010044311       59.1505479267      115.6459370985
C               176.0809139880       57.9719200729      116.3087234499
O               176.6963948120       56.7954386884      116.0269692025
H               176.4461143442       62.2254896368      117.5382939465
H               173.8458984153       63.4055980438      118.2290544464
H               172.8713305064       61.3107299869      117.4182746158
H               173.8151107114       62.1582936767      116.1989340381
H               173.6243239050       59.1451599536      118.3097427368
H               175.9306818845       61.2169218024      115.3766841872
H               174.8363331251       57.0705907502      117.7986234924
H               177.1654095474       59.1491296195      114.8816293396
H               177.3344589201       56.9163362456      115.3111756348
N               173.3308898613       61.5229582750      120.0766258430
C               173.1116039314       61.1886214518      121.4682937110
C               172.5932709721       59.7444738389      121.5875109694
O               171.4059832288       59.4894412759      121.7176069755
C               172.1086405882       62.1821882861      122.0965452498
O               172.5782449993       63.5006506399      121.8728831521
C               171.9543797770       61.9146208773      123.5939412042
H               172.4863000930       61.5743891078      119.5189100964
H               174.0781318411       61.2918261388      121.9702324361
H               171.1449884343       62.0429835125      121.5930925999
H               171.8589381162       64.0155947599      121.4749734120
H               171.2921851500       62.6608823889      124.0213428278
H               171.5369787621       60.9252321676      123.7433267776
H               172.9223195557       61.9925577115      124.0802924314
N               173.5785318622       58.8383739223      121.6095848152
C               173.3893632648       57.4019683951      121.6730110730
C               172.7826088314       56.8215120004      120.3953436002
O               172.0392459055       57.4509258253      119.6623497040
C               172.4843684608       56.9859995455      122.8428872105
H               174.5327985123       59.1576944642      121.4371792045
H               174.3694018585       56.9473156664      121.8209486571
H               172.3648530115       55.9055745677      122.8223286590
H               172.9573641357       57.3011382786      123.7675752368
H               171.5135600794       57.4610734470      122.7284493006
N               173.1315812786       55.5318438716      120.1848205423
C               172.3065801621       54.6455769172      119.3806321424
C               171.8399878684       53.5074342389      120.2889252056
O               170.9562938342       53.7076872898      121.1225137174
C               172.9090297916       54.1574390096      118.0773289786
C               171.8481417626       53.2243986014      117.3964718781
O               170.9415713056       52.7881891828      118.1439266890
O               171.9850931167       53.0103535789      116.1805123626
H               173.7703007850       55.0906646121      120.8338932088
H               171.3970766285       55.1994007846      119.1285683109
H               173.1121592630       54.9819689290      117.3938010039
H               173.8230654211       53.5774570812      118.2048277083
N               177.1100891200       56.6475881702      123.6497862026
C               177.1618239109       57.5223564469      122.5031295516
C               178.4437355648       57.2838414089      121.6905632773
O               179.3960096951       56.6601072562      122.1261037177
C               176.9425322904       59.0190370861      122.7884376831
O               176.3511352581       59.5317262182      121.6070985033
H               177.9200640542       56.6530386123      124.2550675126
H               176.3332731967       57.2133984181      121.8550756543
H               176.2643187334       59.1392063452      123.6414362290
H               177.8906838010       59.5171755570      123.0061426952
H               176.4424755065       60.4957474103      121.5297137165
N               178.3378408528       57.8062388057      120.4656712715
C               179.1639277602       57.4807134433      119.3274307165
C               179.3060014932       58.7496124172      118.4927648376
O               178.8607567428       59.8276470243      118.8656357397
C               178.5005024114       56.3224266955      118.5545809820
C               178.6429646124       54.9717246319      119.2796543735
C               177.3157799117       54.2158750030      119.4329160039
C               177.6086244319       52.8008697521      119.9210594254
N               176.3850843979       52.0311905662      120.2712342116
H               177.5493422651       58.4170009247      120.2764793969
H               180.1515766484       57.1740792602      119.6903170851
H               177.4439009687       56.5642251291      118.4346538680
H               178.9271170809       56.2429010131      117.5570042967
H               179.3378347935       54.3413231554      118.7257966923
H               179.0638969114       55.1208537231      120.2731114141
H               176.6818713162       54.7292855954      120.1580239990
H               176.7873047084       54.1846071396      118.4785943329
H               178.1453341822       52.2526519540      119.1467623532
H               178.2281247385       52.8606168395      120.8188433323
H               175.8622952533       52.4712958000      121.0507331283
H               175.7200676265       51.8873723082      119.4841524860
H               176.6442664095       51.0892981767      120.5841428438
N               179.9590628516       58.6278840629      117.3324342567
C               180.1163417622       59.7500418441      116.4272062116
C               180.4400765915       59.1503541547      115.0567477822
O               180.9605758131       58.0509154976      114.9594568675
C               181.1802265159       60.7426890441      116.9841176330
O               180.5198623119       61.7593016944      117.7168653334
C               182.0401658060       61.4005187308      115.9138469583
H               180.4004721054       57.7690547814      117.0260773244
H               179.1611046133       60.2883019103      116.3674050355
H               181.8331527445       60.1718562558      117.6596757931
H               179.8993543067       61.3280289468      118.3372239679
H               182.8064601149       62.0053649841      116.3887902111
H               182.5345143569       60.6423960806      115.3141237871
H               181.4377164804       62.0276873436      115.2642150613
N               180.0421412692       59.8854491787      114.0149749199
C               180.2141550697       59.4683207562      112.6384668282
C               180.5200380030       60.7191926973      111.8027733388
O               180.4189972580       61.8396643446      112.2835189347
C               178.9609926228       58.7328368500      112.1586983336
H               179.6465711491       60.8094332703      114.1307829744
H               181.0771531792       58.7939986385      112.6016794507
H               179.0094132538       58.5059099454      111.0993471610
H               178.8591466445       57.7956950105      112.6981580009
H               178.0826203424       59.3468841639      112.3359398677
N               180.9602685517       60.4526354659      110.5690595184
C               181.5014382614       61.4310653725      109.6563146083
C               180.4557140184       61.8166795891      108.6058710454
O               179.5591924231       61.0582031716      108.2709156412
C               182.7381322415       60.8456605638      108.9610437455
C               183.7841591140       60.2718331750      109.9282217158
C               184.9644260211       59.7224486299      109.1270987469
C               184.2566848108       61.3155666050      110.9362946512
H               180.9197987076       59.5023631764      110.2336405699
H               181.7549489415       62.3234088601      110.2338691491
H               182.4056241467       60.0490585014      108.2926583540
H               183.1914939858       61.6328025644      108.3611336137
H               183.3337331818       59.4461018947      110.4884633621
H               185.6712429237       59.2233953243      109.7865997378
H               184.6208497045       59.0015353603      108.3902054361
H               185.4805333797       60.5305129804      108.6161884799
H               185.0554808097       60.9081283304      111.5518256783
H               184.6247502132       62.2051301230      110.4310396502
H               183.4493213182       61.6130357982      111.6021468981
N               180.6697441147       63.0145124587      108.0352714429
C               179.6590539342       63.6397797760      107.1988488932
C               180.0469725123       63.4899981722      105.7172869152
O               180.8326707471       64.2475266142      105.1643495185
C               179.5209460366       65.1212986205      107.5272572872
C               179.1349650502       65.3791313164      108.9719419149
O               179.0586662124       64.4942534639      109.8123024360
N               178.8683680766       66.6621779461      109.2487673302
H               181.3329511153       63.6369982098      108.4791594360
H               178.7157536805       63.1098273059      107.3805988264
H               180.4662028266       65.6246881441      107.3109891909
H               178.7699866965       65.5702865363      106.8773564040
H               178.6471033323       66.9174963628      110.2011329258
H               178.9210528183       67.3887750120      108.5403230272
N               175.0473658391       67.0593686547      103.7100831758
C               175.8431891363       66.1952710825      104.5640381746
C               174.9352614549       65.0405488530      105.0076223067
O               173.8562877954       65.2706875024      105.5562841984
C               176.3777891899       66.9595976393      105.7729032266
C               177.5320374863       67.8951703560      105.4197686855
C               177.8690296029       68.7863885725      106.6441516203
O               176.9964436575       69.5601081627      107.0494294939
O               179.0167554174       68.6452959931      107.1605646164
H               174.5672447391       67.8270622479      104.1531755266
H               176.6696945869       65.7909228312      103.9727349289
H               175.5733010283       67.5468658633      106.2225616895
H               176.7149436085       66.2387411450      106.5231030772
H               178.4128623369       67.3245043718      105.1222545149
H               177.2368975809       68.5557350502      104.6021754903
N               175.3573940348       63.8218576798      104.6978418907
C               174.6378809038       62.6315809275      105.0903253717
C               175.5507462629       61.8159317608      106.0008413788
O               176.7692667881       61.9111657113      105.9591719779
C               174.1608447255       61.8024311792      103.8734917264
C               173.3058921299       62.6733111184      102.9551521437
C               175.3349124089       61.2032303334      103.1047702906
H               176.2898787592       63.6955714290      104.3068024324
H               173.7641598843       62.9702310186      105.6602114551
H               173.5463522840       60.9888398197      104.2745821566
H               172.8845416442       62.0715999090      102.1556321840
H               172.4923323137       63.1380123887      103.5079616775
H               173.9077097536       63.4685284362      102.5173471289
H               174.9688976984       60.6549266891      102.2420227031
H               175.9993009539       61.9902512190      102.7552632982
H               175.8912075531       60.5252761098      103.7455212790
N               174.9253875817       60.9657603258      106.8246187817
C               175.6893395922       60.2353521755      107.8133492496
C               175.1422878122       58.8260478607      107.9836089113
O               173.9460940874       58.5860319224      108.0471401539
C               175.7039552551       60.9827353172      109.1702408913
C               174.3249472902       60.9968147539      109.8255911656
C               176.7640200588       60.3805824125      110.0855401028
H               173.9134766561       60.9685533800      106.9017513520
H               176.7199837121       60.2042418493      107.4424490468
H               175.9991523925       62.0131779424      108.9366068232
H               174.3369440853       61.6073066883      110.7262088755
H               173.5858745500       61.4131525803      109.1443917043
H               174.0209234371       59.9896608804      110.0994531487
H               176.8755386171       60.9951163708      110.9743655535
H               176.4956929560       59.3687844229      110.3809847625
H               177.7243521329       60.3702831864      109.5748555322
N               176.0825919735       57.8724980619      108.0686893818
C               175.7633486891       56.4879618053      108.3431258530
C               175.8561712452       56.1981088537      109.8511591357
O               176.8677083769       56.4626612932      110.4853901890
C               176.7587127914       55.5626005837      107.6321823671
O               176.3820645263       54.2319389281      107.8988577700
H               177.0523487818       58.1410525854      108.1501429112
H               174.7475432160       56.2884619526      107.9942727011
H               176.7397136817       55.7743422241      106.5552138022
H               177.7635088578       55.7689605513      108.0282895955
H               176.9906479319       53.6321061126      107.4553669652
N               174.7639279058       55.6328480416      110.3640735655
C               174.6795086374       55.1495643432      111.7281512421
C               174.0353347375       53.7643776267      111.6394627444
O               172.9450339925       53.5979418086      111.1094108949
C               173.8410039537       56.0857606766      112.6288140745
C               174.4079014309       57.5091785648      112.5684502385
C               173.8127704317       55.5461990969      114.0565521312
C               173.6218000186       58.5149025432      113.4030388591
H               173.9572864756       55.4636328878      109.7714631451
H               175.7019580887       55.0936776972      112.1139756343
H               172.8250077813       56.0967394522      112.2239379972
H               175.4475177554       57.4956424093      112.8996822716
H               174.4034349968       57.8383344414      111.5262662320
H               173.1701261397       56.1639856501      114.6779276267
H               173.4187027892       54.5331929070      114.0917303534
H               174.8102501390       55.5511500022      114.4877937421
H               173.9784600350       59.5236561395      113.2051648890
H               172.5624241248       58.4746823809      113.1635501224
H               173.7357151523       58.3289209201      114.4669964601
N               174.7446761970       52.7525685579      112.1566736449
C               174.2775043088       51.3822225194      112.0548024869
C               174.2515189038       50.9785136672      110.5738209957
O               175.2797335243       50.7721486261      109.9494491129
H               175.6718389962       52.9200031863      112.5087193233
H               174.9752753580       50.7378618217      112.5870324517
H               173.2850643106       51.3079787304      112.5084465440
N               173.0257879661       50.8905979661      110.0364664694
C               172.8061049980       50.5791996632      108.6457352002
C               171.9666061631       51.5872112069      107.8634714589
O               171.4956267085       51.2808757707      106.7765131549
H               172.2290039867       51.1363890926      110.6057827413
H               173.7898066176       50.5108685565      108.1691954803
H               172.3209658232       49.6023197217      108.5416879828
N               171.7377872835       52.7623747303      108.4631010153
C               170.9302174454       53.7934407528      107.8498154561
C               171.7264422287       55.0744494882      107.6071720658
O               172.6986905383       55.3739635542      108.2944618634
C               169.7256370127       54.1306868854      108.7415530409
C               168.6838778812       53.0137117959      108.7331460544
C               167.4010927545       53.4623052978      109.4360141444
C               166.3383401908       52.3747950419      109.5126770733
N               166.7191323851       51.3348240029      110.5149096883
H               172.2438991313       53.0057631870      109.3072602580
H               170.5851554954       53.4119674045      106.8825261693
H               170.0879887317       54.3134987237      109.7544579667
H               169.2736639547       55.0535742055      108.3761585038
H               168.4618687649       52.7593276874      107.6935864127
H               169.1274432508       52.1374116655      109.2079163697
H               167.6316459933       53.8404240445      110.4322330632
H               166.9843775850       54.3008813235      108.8777300695
H               165.3909931121       52.8242442231      109.8108849999
H               166.2192931452       51.9056759520      108.5352489967
H               165.9878132198       50.6135304212      110.5844170661
H               167.6038257955       50.8964975935      110.2226237881
H               166.8573759246       51.7811269659      111.4355426832
N               171.2281116988       55.8408817572      106.6319281726
C               171.8249346460       57.1056154762      106.2707553936
C               170.8231793269       58.2538044319      106.4354223822
O               169.7760381767       58.3484388558      105.8045607933
C               172.4352323366       57.0887571144      104.8534561092
O               173.1168262977       58.3221767493      104.7118631096
C               171.4168794586       56.8767600122      103.7403564432
H               170.4873075217       55.4566652571      106.0228938686
H               172.6484289285       57.2820846912      106.9697985563
H               173.1644426554       56.2591405929      104.8342162561
H               173.4620255514       58.3721796680      103.8109251993
H               171.9230768799       56.8073895741      102.7802535869
H               170.8600046958       55.9589807102      103.9082682405
H               170.7144640131       57.7051442534      103.7169620380
N               171.1857484659       59.1430926367      107.3658106408
C               170.3535582321       60.2617048339      107.7396887635
C               170.9681375904       61.5801083136      107.2687502861
O               172.1737217669       61.7267694892      107.1142677773
C               170.2140809265       60.3318600353      109.2745803340
C               169.7516259863       59.0300913872      109.8727687844
C               168.5123254791       58.4871042442      109.5510876722
C               170.5487567610       58.3614230023      110.7913267547
C               168.0766807338       57.3140397987      110.1361416156
C               170.1070916393       57.2072550501      111.4097275872
C               168.8632928291       56.6771847400      111.0919176122
O               168.3930692317       55.5523769586      111.6925210656
H               172.1114220122       59.0842993625      107.7767561290
H               169.3772160531       60.1033844949      107.2697120921
H               171.1875946559       60.5956599016      109.6941306376
H               169.5072626803       61.1249050280      109.5291960457
H               167.8548884169       58.9900690052      108.8581310422
H               171.5211573664       58.7598061700      111.0413702751
H               167.1135914446       56.9001521909      109.8780003962
H               170.7183885903       56.7230324000      112.1580019566
H               168.9870921943       55.2948719424      112.4107745402
N               170.0941851282       62.5740132913      107.0506535525
C               170.5635527404       63.9366956650      106.8354327011
C               171.2383605937       64.4109122082      108.1259670167
O               170.6823729929       64.2700866572      109.2120142149
C               169.3913933181       64.8524769018      106.5070657600
H               169.1287075771       62.4568756356      107.3232868312
H               171.3013141938       63.9204192458      106.0281568133
H               169.7673243594       65.8386228837      106.2537494467
H               168.8386126691       64.4536722795      105.6618157142
H               168.7370228788       64.9335898435      107.3717762996
N               172.4145480106       65.0267588938      107.9916347770
C               173.1596501791       65.4258512617      109.1700308324
C               172.2353447182       66.0804927179      110.1931593802
O               172.2350935462       65.7420511497      111.3717635357
C               174.2761142687       66.3972358235      108.8110854843
H               172.8914186349       65.0906755270      107.0925222007
H               173.5898122155       64.5417489682      109.6616548632
H               174.7403703757       66.7869060682      109.7155641649
H               175.0400813720       65.8902878378      108.2285932964
H               173.8995456600       67.2355646610      108.2321196828
N               171.4602792335       67.0585811213      109.7162666181
C               170.6491549009       67.9073813901      110.5630594288
C               169.7107070793       67.1211416696      111.4921603905
O               169.4259426954       67.5631096079      112.5952343165
C               169.8023488508       68.8312748431      109.6814183886
O               168.9788393630       68.0450718795      108.8596608538
H               171.5111535508       67.2905748029      108.7349323426
H               171.2916581543       68.5151328487      111.2136665613
H               169.2103442962       69.4749782253      110.3440757987
H               170.4794013360       69.4579540266      109.0862615461
H               168.5260809589       68.6274726718      108.2366459968
N               169.1444423777       66.0358645543      110.9508937468
C               168.2307558270       65.2040831732      111.7018822880
C               168.9249017214       64.2665030959      112.7001667006
O               168.3046354484       63.7852998005      113.6358369325
C               167.3664068190       64.3814986638      110.7378767949
C               166.3281690872       65.2128870628      109.9738003715
C               165.2044468921       65.7114022273      110.8937058126
C               163.8864341226       66.0204151176      110.1841480036
N               163.9952912986       67.2104165905      109.2871172957
H               169.5517218129       65.6241748427      110.1179267714
H               167.6125382684       65.8637863365      112.3199546455
H               168.0460998285       63.8890656586      110.0392772979
H               166.8677277226       63.6048011300      111.3202956729
H               166.8474906112       66.0433613313      109.4945808965
H               165.9032205883       64.5620012627      109.2084926171
H               164.9957011686       64.9328421303      111.6285358467
H               165.5400236718       66.5852365611      111.4521784641
H               163.5614414375       65.1620851890      109.5964747955
H               163.1267456792       66.2283362125      110.9379369229
H               163.0507133916       67.6319403721      109.0892494676
H               164.5821992786       67.9147456868      109.7557425130
H               164.4398288869       66.9450588190      108.3991468310
N               170.2085938995       63.9752640902      112.4345461238
C               171.0262048727       63.2102830866      113.3426413337
C               171.6207408808       64.0415959748      114.4864198979
O               171.8083350264       63.5138929555      115.5809518354
C               172.1725823970       62.5445900398      112.5881656323
H               170.7015044154       64.4730411145      111.7059784589
H               170.3835420319       62.4565681529      113.8145821924
H               172.7737255116       61.9623759571      113.2816470796
H               171.7808135165       61.8954884495      111.8101246906
H               172.7959737903       63.3149313449      112.1366502429
N               171.9218254717       65.3078401210      114.2169125638
C               172.5573623339       66.1814720516      115.1865531503
C               171.8481375396       66.0238333137      116.5318289554
O               170.6653245131       66.3102300504      116.6631147775
C               172.4160300067       67.6448527617      114.7668978742
C               173.2825812522       68.0031581106      113.5705817843
C               174.8090221639       67.8275314702      113.8352235895
O               175.2454346391       68.0948019256      114.9694492476
O               175.4813003548       67.4487870913      112.8492986251
H               171.8705585932       65.6467805201      113.2661539773
H               173.6195707743       65.9204440390      115.2875793675
H               171.3613663592       67.8398067548      114.5531668255
H               172.7226647405       68.2659401877      115.6118110622
H               173.0428314773       67.3926674307      112.7008427906
H               173.1297699094       69.0539476904      113.3081453512
N               172.6090643191       65.5777148585      117.5395145838
C               172.0947007705       65.4522880885      118.8813536653
C               170.9648381883       64.4421820238      119.0645006597
O               170.4933612035       64.2615866218      120.1906790569
H               173.6097690001       65.4514790462      117.4150304567
H               172.9177688137       65.1955688922      119.5515567467
H               171.6732781157       66.4107541651      119.2128170242
N               170.4978293385       63.8160466685      117.9928668258
C               169.3132060810       62.9973441344      118.1070316301
C               169.5796822161       61.8404710034      119.0647053400
O               170.6489145239       61.2453331604      119.0874719022
C               168.8688645952       62.4087795888      116.7660612138
C               167.5946316284       61.6652421681      116.9920191488
N               166.5016889143       62.2887792333      117.5283394143
C               167.3187495803       60.3355403175      116.8301946779
C               165.5918177510       61.3599061854      117.6689257294
N               166.0348293208       60.1542506389      117.2575563881
H               170.9852603858       63.8298053524      117.1030423434
H               168.5024737908       63.6168184724      118.5070587147
H               168.7152033664       63.2158912276      116.0471656960
H               169.6314919267       61.7277434152      116.3852576407
H               167.9106190076       59.5303794818      116.4538691539
H               164.6178847199       61.5355589945      118.0781563719
H               165.5624062051       59.2598091366      117.3164657048
N               168.7480818159       58.3999392930      119.6290559044
C               168.3176350430       57.1844806346      118.9798217052
C               167.9906940844       56.0581100327      119.9741447439
O               167.6088639821       54.9708865224      119.5590642773
C               169.3883529296       56.6795392914      118.0066872478
C               169.4860099964       57.4662431833      116.7342241583
C               170.4617758943       58.4460957443      116.5914687984
C               168.6198827100       57.2151736026      115.6754149417
C               170.5715922248       59.1669111761      115.4146526914
C               168.7309921307       57.9365402135      114.4990356326
C               169.7039612082       58.9143022002      114.3656513820
H               169.7399083266       58.5988069601      119.6175145346
H               167.3784895457       57.3776093289      118.4380845494
H               170.3468205268       56.7319901518      118.5242595079
H               169.1655455940       55.6326892231      117.7777448556
H               171.1430861842       58.6364870405      117.4080394789
H               167.8555254488       56.4548934584      115.7755873428
H               171.3392719271       59.9212237224      115.3224452259
H               168.0459519272       57.7304189406      113.6906907779
H               169.7801241492       59.4725954517      113.4455056969
H               188.1416391916       66.0075844909      108.9830657298
H               172.2525929270       52.6003124151      120.2059368788
H               176.4116855920       56.8750182550      124.1698901044
H               179.6527587075       62.7521989268      105.1693382410
H               175.5761659889       67.4343394106      103.0857696858
H               168.8681224547       61.5450864808      119.7022245082
H               168.3546982405       59.1067903963      119.2345804548
H               168.0900129584       56.2142472147      120.9568740768
