 264 
 
N                98.4270000000       59.2920000000      185.1670000000
C                99.1960000000       58.4380000000      184.3200000000
C                98.6830000000       58.5430000000      182.8920000000
O                99.4920000000       58.5560000000      181.9420000000
C                99.1090000000       57.0050000000      184.8440000000
C               100.0120000000       56.7890000000      186.0750000000
C                99.7480000000       55.4710000000      186.7820000000
C               101.4270000000       56.9420000000      185.6810000000
H                97.9410000000       58.8750000000      185.7410000000
H               100.1280000000       58.7080000000      184.3230000000
H                98.1900000000       56.8010000000      185.0780000000
H                99.3670000000       56.3880000000      184.1420000000
H                99.7950000000       57.4710000000      186.7300000000
H               100.3410000000       55.3880000000      187.5450000000
H                98.8270000000       55.4450000000      187.0850000000
H                99.9070000000       54.7370000000      186.1680000000
H               101.9950000000       56.8060000000      186.4550000000
H               101.6460000000       56.2860000000      185.0010000000
H               101.5700000000       57.8340000000      185.3280000000
N                97.3620000000       58.5900000000      182.6930000000
C                96.8480000000       58.7780000000      181.3310000000
C                97.3720000000       60.1650000000      180.9330000000
O                97.8670000000       60.3560000000      179.8410000000
C                95.3060000000       58.6840000000      181.1910000000
O                94.9690000000       58.4200000000      179.8050000000
C                94.6100000000       59.9420000000      181.6870000000
H                96.7650000000       58.5180000000      183.3080000000
H                97.1510000000       58.0620000000      180.7510000000
H                94.9920000000       57.9550000000      181.7480000000
H                94.1350000000       58.3670000000      179.7250000000
H                93.6510000000       59.8440000000      181.5830000000
H                94.8210000000       60.0810000000      182.6240000000
H                94.9140000000       60.7050000000      181.1710000000
N                97.3320000000       61.1110000000      181.8720000000
C                97.8430000000       62.4600000000      181.6600000000
C                99.2560000000       62.3270000000      181.1260000000
O                99.5930000000       62.9140000000      180.1140000000
C                97.8420000000       63.2570000000      182.9780000000
C                96.4950000000       63.8590000000      183.4320000000
C                96.1610000000       65.1600000000      182.6980000000
O                95.2590000000       65.1970000000      181.8740000000
N                96.9200000000       66.1990000000      182.9770000000
H                97.0040000000       60.9840000000      182.6570000000
H                97.2810000000       62.9400000000      181.0320000000
H                98.1650000000       62.6740000000      183.6830000000
H                98.4820000000       63.9810000000      182.8930000000
H                95.7870000000       63.2140000000      183.2790000000
H                96.5240000000       64.0270000000      184.3870000000
H                97.5440000000       66.1300000000      183.5640000000
H                96.7910000000       66.9470000000      182.5720000000
N               100.0510000000       61.4750000000      181.7750000000
C               101.4280000000       61.1910000000      181.3560000000
C               101.4700000000       60.5890000000      179.9460000000
O               102.3870000000       60.8620000000      179.1720000000
C               102.1040000000       60.2460000000      182.3580000000
C               102.5060000000       60.9530000000      183.6450000000
O               102.1500000000       62.0880000000      183.9060000000
N               103.2480000000       60.2200000000      184.4820000000
H                99.8060000000       61.0420000000      182.4760000000
H               101.9130000000       62.0310000000      181.3360000000
H               101.5000000000       59.5160000000      182.5680000000
H               102.8910000000       59.8540000000      181.9480000000
H               103.4920000000       60.5470000000      185.2390000000
H               103.4810000000       59.4210000000      184.2630000000
N               100.5140000000       59.7030000000      179.6570000000
C               100.4070000000       59.1140000000      178.3270000000
C               100.2550000000       60.2840000000      177.3650000000
O               100.9250000000       60.3430000000      176.3290000000
C                99.1710000000       58.2180000000      178.2640000000
C                99.5080000000       56.7500000000      178.0670000000
O                99.2750000000       56.1960000000      176.9940000000
N               100.1200000000       56.1240000000      179.0580000000
H                99.9210000000       59.4320000000      180.2180000000
H               101.1800000000       58.5720000000      178.1060000000
H                98.6620000000       58.3200000000      179.0830000000
H                98.6010000000       58.5140000000      177.5370000000
H               100.3670000000       55.3060000000      178.9620000000
H               100.2710000000       56.5350000000      179.7980000000
N                99.3930000000       61.2280000000      177.7080000000
C                99.1750000000       62.4380000000      176.9360000000
C               100.5070000000       63.1680000000      176.9160000000
O               100.8380000000       63.7620000000      175.8990000000
C                98.0910000000       63.3240000000      177.6050000000
C                96.8130000000       63.6540000000      176.8660000000
C                97.1780000000       64.4300000000      175.5850000000
C                96.0490000000       62.3670000000      176.4530000000
H                98.9060000000       61.1810000000      178.4150000000
H                98.8650000000       62.2320000000      176.0400000000
H                97.8390000000       62.8910000000      178.4360000000
H                98.5130000000       64.1650000000      177.8400000000
H                96.2450000000       64.1780000000      177.4520000000
H                96.3680000000       64.6500000000      175.0980000000
H                97.6440000000       65.2470000000      175.8230000000
H                97.7520000000       63.8820000000      175.0270000000
H                95.2360000000       62.6100000000      175.9820000000
H                96.6100000000       61.8300000000      175.8720000000
H                95.8230000000       61.8560000000      177.2460000000
N               101.2880000000       63.0970000000      178.0050000000
C               102.6130000000       63.7310000000      178.0440000000
C               103.5190000000       63.0400000000      177.0370000000
O               104.5180000000       63.5750000000      176.6280000000
C               103.2490000000       63.7110000000      179.4490000000
C               102.5700000000       64.6870000000      180.4120000000
O               102.0470000000       65.7260000000      179.9940000000
N               102.5670000000       64.3620000000      181.7030000000
H               101.0680000000       62.6870000000      178.7280000000
H               102.5020000000       64.6670000000      177.8130000000
H               103.1960000000       62.8130000000      179.8120000000
H               104.1910000000       63.9330000000      179.3780000000
H               102.1930000000       64.8820000000      182.2760000000
H               102.9390000000       63.6320000000      181.9630000000
N               103.1950000000       61.7810000000      176.7510000000
C               103.9140000000       60.9750000000      175.7800000000
C               103.4550000000       61.5160000000      174.4210000000
O               104.2110000000       61.5680000000      173.4540000000
C               103.5630000000       59.4870000000      175.9100000000
C               104.5040000000       58.5100000000      175.2540000000
C               105.2810000000       57.7350000000      176.2930000000
C               105.8650000000       58.6320000000      177.3830000000
N               107.0180000000       59.4410000000      176.8970000000
H               102.5390000000       61.3680000000      177.1240000000
H               104.8740000000       61.0330000000      175.9050000000
H               103.5100000000       59.2700000000      176.8540000000
H               102.6780000000       59.3510000000      175.5380000000
H               104.0020000000       57.8960000000      174.6950000000
H               105.1180000000       58.9860000000      174.6730000000
H               104.6990000000       57.0740000000      176.7000000000
H               106.0000000000       57.2500000000      175.8590000000
H               105.1730000000       59.2260000000      177.7140000000
H               106.1500000000       58.0840000000      178.1310000000
H               107.2340000000       60.0490000000      177.5100000000
H               107.7150000000       58.9070000000      176.7500000000
H               106.7950000000       59.8510000000      176.1390000000
N               102.1910000000       61.9030000000      174.3530000000
C               101.6550000000       62.4440000000      173.1270000000
C               102.3660000000       63.8220000000      173.0110000000
O               102.7300000000       64.2320000000      171.9260000000
C               100.1330000000       62.5530000000      173.1440000000
O                99.6170000000       62.7420000000      171.8280000000
H               101.6320000000       61.8590000000      175.0050000000
H               101.8200000000       61.8750000000      172.3590000000
H                99.7530000000       61.7490000000      173.5310000000
H                99.8650000000       63.2940000000      173.7090000000
H                98.7790000000       62.7980000000      171.8610000000
N               102.5870000000       64.4880000000      174.1490000000
C               103.2830000000       65.7680000000      174.2240000000
C               104.7100000000       65.4860000000      173.7340000000
O               105.4230000000       66.3670000000      173.2220000000
C               103.3440000000       66.2470000000      175.6570000000
C               104.0760000000       67.6000000000      175.9130000000
C               104.3610000000       67.7730000000      177.3720000000
O               105.4890000000       67.5670000000      177.8350000000
N               103.3340000000       68.0320000000      178.1410000000
H               102.3280000000       64.1970000000      174.9160000000
H               102.8330000000       66.4470000000      173.6970000000
H               102.4360000000       66.3270000000      175.9880000000
H               103.7800000000       65.5620000000      176.1870000000
H               104.9050000000       67.6260000000      175.4110000000
H               103.5290000000       68.3350000000      175.5950000000
H               102.5600000000       68.1710000000      177.7930000000
H               103.4330000000       68.0630000000      178.9950000000
N               105.1340000000       64.2470000000      173.9620000000
C               106.4590000000       63.7930000000      173.5780000000
C               106.4900000000       63.5920000000      172.0630000000
O               107.5020000000       63.8530000000      171.4080000000
C               106.8060000000       62.4660000000      174.2640000000
O               108.2060000000       62.2220000000      174.3340000000
H               104.6560000000       63.6450000000      174.3470000000
H               107.1080000000       64.4600000000      173.8500000000
H               106.4380000000       62.4670000000      175.1620000000
H               106.3800000000       61.7390000000      173.7830000000
H               108.3440000000       61.4870000000      174.7180000000
N               105.3340000000       63.2010000000      171.5190000000
C               105.2040000000       63.0200000000      170.0620000000
C               105.5860000000       64.3700000000      169.4610000000
O               106.3030000000       64.4430000000      168.4630000000
C               103.7740000000       62.7020000000      169.6960000000
H               104.6190000000       63.0360000000      171.9670000000
H               105.7600000000       62.2930000000      169.7400000000
H               103.7040000000       62.5860000000      168.7360000000
H               103.5000000000       61.8850000000      170.1410000000
H               103.1980000000       63.4310000000      169.9760000000
N               105.0010000000       65.4340000000      169.9990000000
C               105.3060000000       66.7760000000      169.5190000000
C               106.8130000000       66.9320000000      169.4840000000
O               107.3250000000       67.5080000000      168.5380000000
C               104.7000000000       67.8090000000      170.4770000000
C               105.0110000000       69.3080000000      170.3620000000
C               106.3500000000       69.7100000000      171.0740000000
C               105.0260000000       69.7090000000      168.9050000000
H               104.4280000000       65.4010000000      170.6390000000
H               104.9350000000       66.9130000000      168.6330000000
H               103.7360000000       67.7180000000      170.4130000000
H               104.9520000000       67.5390000000      171.3740000000
H               104.3090000000       69.7910000000      170.8250000000
H               106.4980000000       70.6630000000      170.9710000000
H               106.2930000000       69.4920000000      172.0170000000
H               107.0880000000       69.2240000000      170.6740000000
H               105.2220000000       70.6560000000      168.8320000000
H               105.7060000000       69.2010000000      168.4360000000
H               104.1590000000       69.5280000000      168.5100000000
N               107.5160000000       66.3780000000      170.4640000000
C               108.9600000000       66.4670000000      170.5330000000
C               109.5350000000       65.7800000000      169.3160000000
O               110.2670000000       66.3870000000      168.5510000000
H               107.1620000000       65.9370000000      171.1120000000
H               109.2410000000       67.3950000000      170.5620000000
H               109.2860000000       66.0470000000      171.3440000000
N               109.0860000000       64.5420000000      169.0600000000
C               109.5830000000       63.8140000000      167.9060000000
C               109.2440000000       64.6330000000      166.6660000000
O               110.0950000000       64.7610000000      165.7650000000
C               108.9780000000       62.3840000000      167.8780000000
O               109.9150000000       61.4790000000      167.3230000000
C               107.6830000000       62.3580000000      167.0950000000
H               108.5060000000       64.1220000000      169.5360000000
H               110.5450000000       63.6950000000      167.9430000000
H               108.7780000000       62.1140000000      168.7880000000
H               109.5850000000       60.7070000000      167.3110000000
H               107.3250000000       61.4570000000      167.0910000000
H               107.0430000000       62.9580000000      167.5080000000
H               107.8500000000       62.6420000000      166.1830000000
N                99.7900000000       71.8410000000      170.0180000000
C               100.4780000000       71.0890000000      171.0590000000
C               100.9170000000       71.9560000000      172.2170000000
O               100.7620000000       71.5590000000      173.3760000000
C               101.6760000000       70.3160000000      170.5060000000
C               101.2870000000       69.0600000000      169.8070000000
C               100.5860000000       68.0510000000      170.6680000000
O                99.8640000000       68.4030000000      171.5940000000
N               100.8030000000       66.7910000000      170.4140000000
H               100.1160000000       71.7350000000      169.2290000000
H                99.8250000000       70.4550000000      171.3950000000
H               102.1650000000       70.8840000000      169.8910000000
H               102.2800000000       70.1010000000      171.2340000000
H               100.7100000000       69.2860000000      169.0610000000
H               102.0840000000       68.6510000000      169.4360000000
H               101.3130000000       66.5660000000      169.7590000000
H               100.4360000000       66.1850000000      170.9010000000
N                97.0490000000       71.4500000000      179.6870000000
C                97.0950000000       70.2900000000      180.5670000000
C                97.7200000000       70.6690000000      181.9050000000
O                97.4160000000       70.0480000000      182.9220000000
C                97.9030000000       69.1420000000      179.9120000000
C                97.2410000000       68.3910000000      178.7240000000
C                98.2120000000       67.3170000000      178.2000000000
C                95.9250000000       67.7440000000      179.1370000000
H                97.4850000000       71.3780000000      178.9490000000
H                96.1870000000       69.9840000000      180.7180000000
H                98.7470000000       69.5070000000      179.6030000000
H                98.1110000000       68.4910000000      180.6000000000
H                97.0470000000       69.0340000000      178.0240000000
H                97.8030000000       66.8450000000      177.4580000000
H                99.0320000000       67.7400000000      177.9010000000
H                98.4140000000       66.6880000000      178.9110000000
H                95.5370000000       67.2840000000      178.3760000000
H                96.0870000000       67.1070000000      179.8510000000
H                95.3110000000       68.4280000000      179.4480000000
H                98.9786958287       59.8309823218      185.6308208376
H               108.3448185858       65.0621774158      166.5806798372
H                98.9279517243       71.5848830706      169.9822664176
H               101.3320232818       72.8491525446      172.0436961983
H                96.1952630140       71.6201053202      179.4585326310
H                98.3763416512       71.4218107138      181.9549165909
