584
Properties=species:S:1:pos:R:3 pbc="F F F"
N      50.56100000      42.77700000      50.87200000 
C      50.78000000      44.19600000      51.02300000 
C      51.86300000      44.59700000      50.05800000 
O      52.72100000      43.75200000      49.73200000 
C      51.13000000      44.60300000      52.45000000 
C      52.08000000      43.73200000      53.20800000 
O      51.98400000      43.69800000      54.45000000 
N      53.01700000      43.06200000      52.54900000 
H      51.17100000      42.28800000      50.26600000 
H      49.87400000      44.71300000      50.76100000 
H      51.54000000      45.60400000      52.44700000 
H      50.22700000      44.62400000      53.02400000 
H      53.65500000      42.50000000      53.05700000 
H      53.09200000      43.08600000      51.55700000 
N      51.88000000      45.84500000      49.61000000 
C      52.87600000      46.25200000      48.62300000 
C      53.15700000      47.72600000      48.74800000 
O      52.42300000      48.58400000      48.24500000 
C      52.41000000      45.91400000      47.21000000 
C      52.99200000      44.59900000      46.69700000 
C      52.01300000      43.81600000      45.83000000 
N      52.52800000      43.64700000      44.48100000 
C      51.89600000      42.95500000      43.55300000 
N      52.40800000      42.85100000      42.33300000 
N      50.74700000      42.36500000      43.83600000 
H      51.14300000      46.49000000      49.82700000 
H      53.77600000      45.71100000      48.85200000 
H      51.33300000      45.86200000      47.24100000 
H      52.66200000      46.71700000      46.53800000 
H      53.89100000      44.80900000      46.13500000 
H      53.28100000      43.99200000      47.53200000 
H      51.83900000      42.84300000      46.26100000 
H      51.06800000      44.33000000      45.77500000 
H      53.39000000      44.07900000      44.24500000 
H      53.26100000      43.30100000      42.10000000 
H      51.95500000      42.31900000      41.63500000 
H      50.34600000      42.41700000      44.74200000 
H      50.25400000      41.85200000      43.14300000 
N      54.27600000      48.06000000      49.38500000 
C      54.67400000      49.43200000      49.47800000 
C      55.13000000      49.97400000      48.15200000 
O      55.61000000      49.26000000      47.26300000 
C      55.81900000      49.57700000      50.47600000 
C      55.30100000      49.40300000      51.86400000 
C      54.75300000      50.48600000      52.52500000 
C      55.27500000      48.16000000      52.46800000 
C      54.17500000      50.33500000      53.76500000 
C      54.69500000      47.99800000      53.71000000 
C      54.14000000      49.08500000      54.35600000 
H      54.89200000      47.35900000      49.71400000 
H      53.83900000      50.02000000      49.81400000 
H      56.58000000      48.85200000      50.23700000 
H      56.24800000      50.55900000      50.36000000 
H      54.77700000      51.45000000      52.05900000 
H      55.70600000      47.32100000      51.96400000 
H      53.75800000      51.17900000      54.27000000 
H      54.67900000      47.03300000      54.17100000 
H      53.72400000      48.97200000      55.32500000 
N      55.03800000      51.29600000      48.07000000 
C      55.60900000      52.09000000      47.01700000 
C      56.35400000      53.22400000      47.66100000 
O      55.91400000      53.76500000      48.68600000 
C      54.49500000      52.61300000      46.09500000 
C      54.03100000      51.44400000      45.23200000 
C      54.91800000      53.81900000      45.27400000 
C      53.07100000      51.81400000      44.11600000 
H      54.62300000      51.80500000      48.81600000 
H      56.28600000      51.47900000      46.45300000 
H      53.68300000      52.92000000      46.74100000 
H      54.90500000      50.97800000      44.79900000 
H      53.57500000      50.70200000      45.87300000 
H      54.08600000      54.16900000      44.68100000 
H      55.23100000      54.63300000      45.90700000 
H      55.73200000      53.57400000      44.60400000 
H      52.70600000      50.92300000      43.62300000 
H      52.21900000      52.36300000      44.49100000 
H      53.56100000      52.42400000      43.36900000 
N      57.44800000      53.65500000      47.05300000 
C      58.00300000      54.95200000      47.35000000 
C      58.83600000      55.34700000      46.17300000 
O      59.47300000      54.49100000      45.53500000 
C      58.80300000      55.00600000      48.66500000 
C      60.31200000      54.73300000      48.60200000 
C      61.10100000      55.88400000      49.21400000 
C      60.98200000      57.13600000      48.37600000 
N      61.43800000      58.32500000      49.13700000 
H      57.81300000      53.17500000      46.26300000 
H      57.17900000      55.64000000      47.45100000 
H      58.64800000      55.98700000      49.08600000 
H      58.32300000      54.31100000      49.32900000 
H      60.54500000      53.82500000      49.14200000 
H      60.64500000      54.57400000      47.59000000 
H      60.72000000      56.08500000      50.20700000 
H      62.14400000      55.62200000      49.31700000 
H      61.58100000      57.07500000      47.48700000 
H      59.96600000      57.33100000      48.09400000 
H      61.34700000      59.16200000      48.56000000 
H      60.88100000      58.45400000      49.96100000 
H      62.39900000      58.23500000      49.42400000 
N      53.80300000      60.76700000      49.75800000 
C      54.14500000      59.41400000      50.07900000 
C      52.88500000      58.71600000      50.52200000 
O      52.06300000      59.27900000      51.25900000 
C      55.24200000      59.39300000      51.13500000 
C      54.98200000      60.20400000      52.38900000 
O      54.37000000      61.31000000      52.29100000 
O      55.46000000      59.74300000      53.45900000 
H      53.43100000      61.27600000      50.52600000 
H      54.51300000      58.94000000      49.18600000 
H      55.47900000      58.38400000      51.41500000 
H      56.11900000      59.81900000      50.66200000 
N      52.70900000      57.47800000      50.07400000 
C      51.51500000      56.71600000      50.34800000 
C      51.83000000      55.27500000      50.04500000 
O      52.89700000      54.96100000      49.49800000 
C      50.32700000      57.25900000      49.55800000 
C      50.59100000      57.39100000      48.07100000 
C      50.44800000      58.79400000      47.51400000 
O      50.29500000      59.76400000      48.30600000 
O      50.51700000      58.89800000      46.25200000 
H      53.40000000      57.03600000      49.52100000 
H      51.28700000      56.78500000      51.39900000 
H      49.46300000      56.63900000      49.75200000 
H      50.12200000      58.23900000      49.95100000 
H      51.60000000      57.08100000      47.83500000 
H      49.94000000      56.75600000      47.49000000 
N      50.93300000      54.36000000      50.42000000 
C      51.21200000      52.94500000      50.33800000 
C      49.93400000      52.22200000      50.04000000 
O      48.85200000      52.81700000      50.15100000 
C      51.82900000      52.41200000      51.63800000 
C      50.83300000      52.13400000      52.72800000 
C      50.07100000      53.13800000      53.30600000 
C      50.65200000      50.83400000      53.16400000 
C      49.15000000      52.84300000      54.29600000 
C      49.74500000      50.53500000      54.15900000 
C      48.99300000      51.54200000      54.73000000 
H      50.04800000      54.62600000      50.76900000 
H      51.91200000      52.79100000      49.53500000 
H      52.35500000      51.49800000      51.41000000 
H      52.56500000      53.13400000      51.95800000 
H      50.18100000      54.14400000      52.98200000 
H      51.23000000      50.05100000      52.72200000 
H      48.55400000      53.62600000      54.71700000 
H      49.63100000      49.52400000      54.48800000 
H      48.29200000      51.31800000      55.50600000 
N      50.00500000      50.93800000      49.68900000 
C      48.81100000      50.21500000      49.34500000 
C      48.91200000      48.79200000      49.79900000 
O      49.99500000      48.26900000      50.10700000 
C      48.50400000      50.25300000      47.83000000 
C      48.94000000      51.57500000      47.22300000 
C      49.16500000      49.10700000      47.08100000 
H      50.87900000      50.46900000      49.62500000 
H      47.99900000      50.68500000      49.87000000 
H      47.43400000      50.16800000      47.73700000 
H      48.52700000      51.67000000      46.23000000 
H      48.61700000      52.41300000      47.81100000 
H      50.01900000      51.60600000      47.14800000 
H      49.05400000      49.26200000      46.01600000 
H      50.21600000      49.05500000      47.31200000 
H      48.71500000      48.15700000      47.32600000 
N      47.76600000      48.11800000      49.78600000 
C      47.70500000      46.72600000      50.12600000 
C      46.79500000      45.99400000      49.18700000 
O      46.08100000      46.57500000      48.35500000 
C      47.31500000      46.53500000      51.59300000 
C      48.46700000      46.97800000      52.47400000 
C      46.05500000      47.30800000      51.93500000 
H      46.92200000      48.56700000      49.52300000 
H      48.69200000      46.32300000      49.98000000 
H      47.14200000      45.47900000      51.75100000 
H      48.28400000      46.69200000      53.49200000 
H      49.39200000      46.54700000      52.13800000 
H      48.57400000      48.05300000      52.43200000 
H      45.73900000      47.07300000      52.94200000 
H      46.25800000      48.36800000      51.88800000 
H      45.24100000      47.09500000      51.25600000 
N      43.31300000      50.90500000      48.71700000 
C      44.38200000      51.71700000      49.21800000 
C      43.89000000      52.57900000      50.35100000 
O      42.74000000      53.05700000      50.31600000 
C      44.91200000      52.58300000      48.09400000 
O      45.31600000      51.64800000      47.09100000 
C      46.07000000      53.44100000      48.53000000 
H      42.61000000      51.37200000      48.19500000 
H      45.17200000      51.07000000      49.55800000 
H      44.10100000      53.18800000      47.71600000 
H      45.59800000      52.07400000      46.28800000 
H      46.50700000      53.92700000      47.67600000 
H      45.74900000      54.20000000      49.22700000 
H      46.82500000      52.83800000      49.00300000 
N      44.73700000      52.80000000      51.34400000 
C      44.44200000      53.65900000      52.46900000 
C      45.51400000      54.71200000      52.53700000 
O      46.69900000      54.40300000      52.35500000 
C      44.43300000      52.86000000      53.76100000 
H      45.64700000      52.40700000      51.31500000 
H      43.48100000      54.10900000      52.29800000 
H      44.21300000      53.50100000      54.59900000 
H      43.67900000      52.09200000      53.70100000 
H      45.39400000      52.39600000      53.91400000 
N      45.14700000      55.96100000      52.81800000 
C      46.11800000      57.02700000      52.83800000 
C      46.83700000      57.07300000      54.16000000 
O      48.07300000      57.05500000      54.22600000 
C      45.42400000      58.34300000      52.54200000 
C      46.39100000      59.47200000      52.39600000 
C      47.22600000      59.53700000      51.29000000 
C      46.46500000      60.47600000      53.34400000 
C      48.09700000      60.58400000      51.11500000 
C      47.33900000      61.53800000      53.18300000 
C      48.13900000      61.59100000      52.06400000 
O      49.00100000      62.63800000      51.83600000 
H      44.18700000      56.18200000      52.93000000 
H      46.86300000      56.82500000      52.09500000 
H      44.86900000      58.20500000      51.62900000 
H      44.71000000      58.56000000      53.31900000 
H      47.18100000      58.75800000      50.55400000 
H      45.83800000      60.43400000      54.20600000 
H      48.73600000      60.63400000      50.25800000 
H      47.38900000      62.31800000      53.91500000 
H      48.92800000      63.34200000      52.46900000 
N      46.05700000      57.14400000      55.23900000 
C      46.60100000      57.20500000      56.57000000 
C      45.80500000      56.34000000      57.50600000 
O      45.92600000      56.46900000      58.73200000 
C      46.72700000      58.63200000      57.10900000 
C      48.09500000      58.85000000      57.71900000 
C      48.18200000      60.14600000      58.48500000 
N      49.39600000      60.12500000      59.28900000 
C      49.65500000      60.98000000      60.26100000 
N      48.86200000      62.02100000      60.46100000 
N      50.70500000      60.78800000      61.04700000 
H      45.07900000      57.27600000      55.12100000 
H      47.58800000      56.77600000      56.51300000 
H      46.56200000      59.32300000      56.30000000 
H      45.96700000      58.81000000      57.85500000 
H      48.30700000      58.03600000      58.40000000 
H      48.84500000      58.82900000      56.94100000 
H      48.19000000      60.99600000      57.81600000 
H      47.33300000      60.24000000      59.14400000 
H      50.03400000      59.38100000      59.13800000 
H      48.10700000      62.22300000      59.85300000 
H      49.02500000      62.63900000      61.22100000 
H      51.27200000      59.97800000      60.95000000 
H      50.93400000      61.44000000      61.75900000 
N      44.97800000      55.45600000      56.96000000 
C      44.11200000      54.65000000      57.76300000 
C      44.78000000      53.37000000      58.19800000 
O      45.91600000      53.05200000      57.83500000 
C      42.80600000      54.35700000      57.02200000 
C      41.65100000      54.32500000      57.97500000 
O      41.36400000      55.33300000      58.64000000 
N      40.99800000      53.17800000      58.09600000 
H      45.00700000      55.31300000      55.98100000 
H      43.88900000      55.21700000      58.65200000 
H      42.62200000      55.17100000      56.34100000 
H      42.87600000      53.44400000      56.45500000 
H      40.23000000      53.10900000      58.72400000 
H      41.24300000      52.36900000      57.57500000 
N      44.02200000      52.61000000      58.98600000 
C      44.44400000      51.35200000      59.53000000 
C      44.83800000      51.51900000      60.96400000 
O      45.62700000      52.41600000      61.32300000 
H      43.12900000      52.93000000      59.26900000 
H      43.65000000      50.63600000      59.42700000 
H      45.30300000      51.00200000      58.98100000 
N      44.30800000      50.65900000      61.81200000 
C      44.66100000      50.63900000      63.19600000 
C      44.54200000      49.22900000      63.68900000 
O      43.83600000      48.37900000      63.12500000 
C      43.88500000      51.65500000      64.01300000 
C      42.38300000      51.66100000      63.87000000 
O      41.81100000      50.72400000      63.24800000 
O      41.80400000      52.64900000      64.40400000 
H      43.60400000      50.02100000      61.52600000 
H      45.70400000      50.89500000      63.26100000 
H      44.12200000      51.55300000      65.06300000 
H      44.21500000      52.63600000      63.71300000 
N      57.62400000      48.22500000      66.85300000 
C      57.74600000      48.18300000      65.41700000 
C      58.78000000      49.13700000      64.92400000 
O      59.11500000      50.15200000      65.55500000 
C      56.40800000      48.44400000      64.72000000 
C      55.76000000      49.75500000      64.99800000 
C      55.59100000      50.74400000      64.08500000 
C      55.11900000      50.21200000      66.22200000 
N      54.90400000      51.79800000      64.65200000 
C      54.61700000      51.50500000      65.96100000 
C      54.91100000      49.66200000      67.48600000 
C      53.97800000      52.26100000      66.93800000 
C      54.29200000      50.41200000      68.45800000 
C      53.83600000      51.70600000      68.18800000 
H      57.76300000      49.09100000      67.31800000 
H      58.05300000      47.18800000      65.15000000 
H      56.55900000      48.33000000      63.66000000 
H      55.76600000      47.64600000      65.03500000 
H      55.90000000      50.77400000      63.06900000 
H      54.64700000      52.62600000      64.17400000 
H      55.22100000      48.66700000      67.70900000 
H      53.61200000      53.24400000      66.72200000 
H      54.17000000      50.00000000      69.43100000 
H      53.35700000      52.26100000      68.96900000 
N      59.27600000      48.82200000      63.73600000 
C      60.16200000      49.64700000      62.98300000 
C      59.40500000      50.64800000      62.15100000 
O      58.20600000      50.51200000      61.87700000 
C      60.95700000      48.76100000      62.03000000 
C      61.55700000      47.62300000      62.81400000 
O      61.03200000      46.48300000      62.67400000 
O      62.51100000      47.90200000      63.59400000 
H      58.97300000      47.97800000      63.30900000 
H      60.83600000      50.14500000      63.64900000 
H      60.29400000      48.37200000      61.27600000 
H      61.73400000      49.34800000      61.57100000 
N      60.14300000      51.63200000      61.65200000 
C      59.69100000      52.44500000      60.55300000 
C      60.88100000      52.68100000      59.66500000 
O      62.02700000      52.79000000      60.14300000 
C      59.09100000      53.78100000      60.99600000 
C      59.99100000      54.45600000      61.98900000 
C      59.53600000      55.78800000      62.49900000 
O      60.42100000      56.47800000      63.10700000 
O      58.34600000      56.16500000      62.32600000 
H      61.07900000      51.76400000      61.95600000 
H      58.95000000      51.88400000      60.01300000 
H      58.95200000      54.39900000      60.11800000 
H      58.11800000      53.59500000      61.42400000 
H      60.12800000      53.82700000      62.85400000 
H      60.97400000      54.57900000      61.57700000 
N      60.62400000      52.78800000      58.37400000 
C      61.58900000      53.17400000      57.38000000 
C      61.61000000      54.66600000      57.21500000 
O      60.65000000      55.38000000      57.54300000 
C      61.19700000      52.52300000      56.06100000 
C      61.60100000      51.05900000      56.03400000 
C      60.66500000      50.25300000      55.15400000 
C      63.03400000      50.93600000      55.54500000 
H      59.68400000      52.68600000      58.07400000 
H      62.56100000      52.84200000      57.68400000 
H      60.12700000      52.63800000      55.94100000 
H      61.66600000      53.04000000      55.24000000 
H      61.53400000      50.67900000      57.04700000 
H      60.96100000      49.21200000      55.13000000 
H      59.65100000      50.30600000      55.52100000 
H      60.68500000      50.63400000      54.14500000 
H      63.40300000      49.92700000      55.66600000 
H      63.07700000      51.18600000      54.49200000 
H      63.69200000      51.60500000      56.08000000 
N      46.32600000      50.80200000      68.60800000 
C      47.50700000      51.44800000      68.09000000 
C      47.27600000      51.69200000      66.61700000 
O      47.45600000      50.77900000      65.78100000 
C      48.76000000      50.62100000      68.32000000 
C      48.89100000      50.26000000      69.80000000 
C      49.96900000      51.40700000      67.83800000 
C      48.55900000      48.81300000      70.11600000 
H      45.99500000      49.99300000      68.13000000 
H      47.61800000      52.38400000      68.60300000 
H      48.67000000      49.71700000      67.73800000 
H      49.90300000      50.46000000      70.12300000 
H      48.25900000      50.90800000      70.38700000 
H      50.87200000      50.82500000      67.95700000 
H      49.87900000      51.68900000      66.79800000 
H      50.07500000      52.30700000      68.42500000 
H      48.66300000      48.62300000      71.17700000 
H      47.54600000      48.57100000      69.82400000 
H      49.22600000      48.14700000      69.59100000 
N      46.87100000      52.89200000      66.23300000 
C      46.75800000      53.22400000      64.83200000 
C      48.07700000      53.29400000      64.12700000 
O      49.13900000      53.54300000      64.72000000 
C      46.10700000      54.61000000      64.84000000 
C      45.34300000      54.63100000      66.15100000 
C      46.28500000      53.91600000      67.10300000 
H      46.14000000      52.50900000      64.33500000 
H      46.87800000      55.36300000      64.84800000 
H      45.49200000      54.76100000      63.97000000 
H      45.10500000      55.62900000      66.48200000 
H      44.42900000      54.06600000      66.05700000 
H      47.05200000      54.57600000      67.47600000 
H      45.77600000      53.45700000      67.92600000 
N      48.00500000      53.14800000      62.80900000 
C      49.13900000      53.35800000      61.96000000 
C      49.48200000      54.82000000      61.83000000 
O      48.81400000      55.73200000      62.31100000 
C      48.87900000      52.75800000      60.58400000 
C      49.39700000      51.34200000      60.43100000 
C      50.91500000      51.30600000      60.39600000 
C      48.86200000      50.39100000      61.48800000 
H      47.13700000      52.89500000      62.37900000 
H      49.99700000      52.89200000      62.41000000 
H      47.81900000      52.78600000      60.39700000 
H      49.35200000      53.36500000      59.83100000 
H      49.02800000      51.01600000      59.47400000 
H      51.27300000      50.32000000      60.14100000 
H      51.30800000      52.00300000      59.67000000 
H      51.33200000      51.56200000      61.36400000 
H      49.17200000      49.37800000      61.26300000 
H      49.24100000      50.64700000      62.46700000 
H      47.78100000      50.41900000      61.52800000 
N      50.61100000      55.04700000      61.14000000 
C      51.25400000      56.33900000      61.14000000 
C      52.08800000      56.48400000      59.89500000 
O      53.31300000      56.68000000      59.94300000 
C      52.06100000      56.53700000      62.40100000 
C      52.98200000      55.37000000      62.72800000 
C      53.84500000      55.67400000      63.95000000 
C      55.25100000      56.09000000      63.59000000 
N      55.26000000      57.18500000      62.57200000 
H      51.15200000      54.26500000      60.84700000 
H      50.47600000      57.08600000      61.09200000 
H      52.61000000      57.46100000      62.31400000 
H      51.36600000      56.65300000      63.21800000 
H      52.37800000      54.49800000      62.91900000 
H      53.60400000      55.12800000      61.88200000 
H      53.37200000      56.44400000      64.54100000 
H      53.93200000      54.80500000      64.58300000 
H      55.78600000      56.46200000      64.44400000 
H      55.80300000      55.28000000      63.15500000 
H      56.21900000      57.37200000      62.31100000 
H      54.74300000      56.93800000      61.74300000 
H      54.86000000      58.02800000      62.94700000 
N      51.43300000      56.42000000      58.73800000 
C      52.11300000      56.58300000      57.48300000 
C      52.88100000      55.34900000      57.10200000 
O      52.38100000      54.21900000      57.19600000 
H      50.45900000      56.24200000      58.73800000 
H      51.37200000      56.75700000      56.71700000 
H      52.76600000      57.43600000      57.52500000 
N      54.10700000      55.54200000      56.63000000 
C      54.91700000      54.45900000      56.13300000 
C      55.59600000      53.75300000      57.28100000 
O      56.27000000      54.38700000      58.10600000 
C      55.94700000      55.00500000      55.15300000 
C      55.25100000      55.37000000      53.88000000 
O      55.03400000      54.50100000      53.01400000 
N      54.84100000      56.62400000      53.74700000 
H      54.51900000      56.44300000      56.69300000 
H      54.27000000      53.76700000      55.62200000 
H      56.45900000      55.84700000      55.59300000 
H      56.66700000      54.23500000      54.93100000 
H      54.33600000      56.88900000      52.93200000 
H      55.07000000      57.34200000      54.38500000 
N      55.39700000      52.44200000      57.33600000 
C      55.78500000      51.59100000      58.43300000 
C      56.18100000      50.26700000      57.84600000 
O      55.62000000      49.87600000      56.81000000 
C      54.58700000      51.39500000      59.37600000 
C      54.83800000      50.32700000      60.42600000 
C      54.23800000      52.70900000      60.05200000 
H      54.88300000      51.99100000      56.61500000 
H      56.60800000      52.04000000      58.96500000 
H      53.76100000      51.09000000      58.74700000 
H      54.00700000      50.30400000      61.11700000 
H      54.95200000      49.34200000      59.99900000 
H      55.73500000      50.56000000      60.97900000 
H      53.41900000      52.56100000      60.73800000 
H      55.08700000      53.07000000      60.61300000 
H      53.94700000      53.46800000      59.34300000 
N      57.07000000      49.52600000      58.48400000 
C      57.35900000      48.17900000      58.03700000 
C      57.65800000      47.33900000      59.24700000 
O      58.55000000      47.68000000      60.03200000 
C      58.54600000      48.16300000      57.08700000 
C      59.04700000      46.76000000      56.73200000 
C      58.88100000      46.36900000      55.26200000 
N      60.18400000      46.13800000      54.64600000 
C      60.57000000      45.09300000      53.94800000 
N      61.82700000      45.02100000      53.52600000 
N      59.74700000      44.10000000      53.65300000 
H      57.53100000      49.86000000      59.30100000 
H      56.48700000      47.80900000      57.53700000 
H      58.24700000      48.69600000      56.20000000 
H      59.33300000      48.73300000      57.55100000 
H      60.09500000      46.68600000      56.98000000 
H      58.54900000      46.01900000      57.33400000 
H      58.29900000      45.47200000      55.18800000 
H      58.36900000      47.13700000      54.71000000 
H      60.85600000      46.85600000      54.79700000 
H      62.48500000      45.73200000      53.74800000 
H      62.13900000      44.25400000      52.98400000 
H      58.78800000      44.11400000      53.89900000 
H      60.08000000      43.31100000      53.15000000 
N      56.95100000      46.22100000      59.34700000 
C      57.02900000      45.24800000      60.39900000 
C      56.34800000      45.75400000      61.64200000 
O      56.22600000      46.95800000      61.89300000 
C      58.44000000      44.80600000      60.74300000 
C      59.08900000      44.12300000      59.58600000 
O      58.42700000      43.67100000      58.63600000 
N      60.41200000      44.01300000      59.64800000 
H      56.26400000      46.04600000      58.65400000 
H      56.49700000      44.38300000      60.04600000 
H      59.03800000      45.63200000      61.07500000 
H      58.38700000      44.08900000      61.55200000 
H      60.89800000      43.53000000      58.92700000 
H      60.93100000      44.38500000      60.40600000 
N      50.87800000      41.55200000      58.03800000 
C      50.46700000      42.43400000      56.96700000 
C      49.76100000      43.65000000      57.46200000 
O      49.28800000      43.75000000      58.60500000 
C      49.51300000      41.58400000      56.13100000 
C      50.01800000      40.17500000      56.36700000 
C      50.40400000      40.18300000      57.83500000 
H      51.31700000      42.73300000      56.38100000 
H      48.50700000      41.68800000      56.51300000 
H      49.52100000      41.88700000      55.09900000 
H      49.28500000      39.42400000      56.15000000 
H      50.89100000      39.99300000      55.76300000 
H      49.55300000      39.98000000      58.46400000 
H      51.17500000      39.46900000      58.04400000 
N      49.61600000      44.60700000      56.54700000 
C      49.07100000      45.90200000      56.89200000 
C      47.64200000      45.95600000      56.42100000 
O      47.33200000      46.39500000      55.30600000 
C      49.95400000      47.01300000      56.33800000 
C      50.32900000      48.01900000      57.41900000 
C      51.59500000      48.77400000      57.06100000 
C      49.18600000      48.98100000      57.67800000 
H      50.02900000      44.47900000      55.65000000 
H      49.06900000      45.94400000      57.96400000 
H      50.85100000      46.56200000      55.94000000 
H      49.45900000      47.51600000      55.52300000 
H      50.52500000      47.46700000      58.32800000 
H      51.84800000      49.47900000      57.84300000 
H      52.42400000      48.08900000      56.94200000 
H      51.47000000      49.32200000      56.14100000 
H      49.51300000      49.74400000      58.36000000 
H      48.88600000      49.46000000      56.75800000 
H      48.32100000      48.48900000      58.10600000 
N      46.71800000      45.46200000      57.25000000 
C      45.34300000      45.41600000      56.83700000 
C      44.61900000      46.67600000      57.22800000 
O      45.00500000      47.42600000      58.13300000 
C      44.60700000      44.19100000      57.39300000 
C      44.14900000      44.43700000      58.81700000 
C      43.44200000      43.81200000      56.48600000 
H      46.97300000      45.16900000      58.16300000 
H      45.34600000      45.35400000      55.76300000 
H      45.32800000      43.38700000      57.38500000 
H      43.79800000      43.53500000      59.28400000 
H      44.94900000      44.84000000      59.42100000 
H      43.33700000      45.14600000      58.83000000 
H      43.09100000      42.81900000      56.70800000 
H      42.61100000      44.48100000      56.62200000 
H      43.74500000      43.83300000      55.44600000 
N      43.47700000      46.90100000      56.57500000 
C      42.62600000      48.03100000      56.84300000 
C      42.14700000      48.06000000      58.27200000 
O      42.17600000      49.12800000      58.90200000 
C      41.43800000      47.91400000      55.90200000 
C      40.36800000      48.97900000      56.04800000 
C      40.76900000      50.37100000      55.62000000 
N      41.13900000      50.38000000      54.21500000 
C      41.09200000      51.43600000      53.42200000 
N      40.72700000      52.62600000      53.87500000 
N      41.42400000      51.30700000      52.14900000 
H      43.23300000      46.31300000      55.81300000 
H      43.16700000      48.95000000      56.69500000 
H      41.81700000      47.88500000      54.89400000 
H      40.99100000      46.95300000      56.08700000 
H      39.51300000      48.68000000      55.45900000 
H      40.03900000      49.03300000      57.07600000 
H      39.92800000      51.02700000      55.75900000 
H      41.59400000      50.73900000      56.21100000 
H      41.49100000      49.53700000      53.82500000 
H      40.57200000      52.80600000      54.83800000 
H      40.58600000      53.37400000      53.23700000 
H      41.61500000      50.40900000      51.77200000 
H      41.60400000      52.09800000      51.56600000 
H      50.64294584      42.37353007      51.67231050 
H      58.88382190      56.30596981      45.89355417 
H      54.53783904      61.20401826      49.47688324 
H      46.74567917      44.99561361      49.21514375 
H      43.64668786      50.27324421      48.16970024 
H      45.04384157      48.94038177      64.50438614 
H      56.79495040      47.96868049      67.09169869 
H      62.41614596      55.11514966      56.82978152 
H      46.47738269      50.53215191      69.45314217 
H      55.97191590      45.10657614      62.30487487 
H      51.77274461      41.45625895      58.02169844 
H      41.80992633      47.22319339      58.70343486 
