303
Properties=species:S:1:pos:R:3 pbc="F F F"
N      28.78000000      14.16000000      22.56600000 
C      27.86700000      14.32200000      23.67900000 
C      27.31000000      12.94900000      23.92800000 
O      26.39700000      12.51600000      23.20300000 
C      26.76900000      15.29600000      23.27900000 
C      27.32800000      16.67800000      22.94000000 
C      25.71500000      15.40600000      24.36200000 
C      26.52500000      17.35100000      21.84200000 
H      28.42000000      13.72000000      21.74900000 
H      28.41300000      14.67700000      24.53000000 
H      26.31600000      14.88500000      22.38900000 
H      27.32700000      17.28300000      23.83600000 
H      28.35400000      16.60400000      22.61900000 
H      24.95900000      16.11400000      24.06600000 
H      25.23900000      14.45800000      24.55800000 
H      26.16200000      15.76300000      25.27700000 
H      26.83100000      18.38100000      21.69800000 
H      26.66100000      16.82600000      20.90900000 
H      25.46900000      17.34900000      22.07700000 
N      25.08200000      10.68400000      13.52400000 
C      24.65700000      11.97700000      13.97800000 
C      25.32900000      12.37400000      15.26600000 
O      25.08800000      13.47700000      15.78000000 
C      23.15600000      11.99600000      14.23100000 
C      22.32700000      11.66800000      13.01400000 
O      22.51500000      10.53800000      12.47600000 
O      21.48400000      12.52800000      12.63600000 
H      24.41500000       9.95100000      13.59700000 
H      24.92200000      12.72000000      13.24500000 
H      22.93200000      11.27000000      15.00000000 
H      22.89000000      12.96900000      14.59500000 
N      26.14200000      11.50000000      15.84700000 
C      26.70600000      11.77800000      17.14200000 
C      27.76800000      12.84000000      17.05000000 
O      27.92200000      13.68900000      17.94000000 
C      27.27800000      10.48800000      17.68800000 
O      27.76800000      10.76400000      19.00100000 
H      26.36600000      10.64100000      15.39300000 
H      25.94400000      12.14600000      17.80200000 
H      26.49900000       9.74800000      17.71000000 
H      28.07200000      10.14200000      17.05000000 
H      28.06600000       9.97500000      19.44300000 
N      29.67600000      15.73200000      14.47800000 
C      29.43100000      16.59500000      13.34600000 
C      30.71600000      17.32100000      13.01000000 
O      31.74500000      16.68200000      12.75600000 
C      28.22900000      17.49000000      13.57300000 
C      26.92800000      16.70100000      13.74200000 
C      26.50400000      16.62900000      15.19700000 
C      25.82100000      17.32600000      12.90800000 
H      30.03400000      16.13700000      15.31200000 
H      29.22600000      15.94800000      12.51100000 
H      28.40000000      18.10500000      14.44700000 
H      28.13100000      18.14900000      12.72500000 
H      27.09500000      15.69700000      13.38700000 
H      25.59800000      16.05200000      15.30400000 
H      27.26600000      16.17300000      15.81300000 
H      26.31700000      17.62600000      15.57500000 
H      24.89800000      16.77500000      13.01700000 
H      25.64900000      18.34400000      13.22800000 
H      26.09000000      17.34200000      11.86000000 
N      28.21400000      27.37500000      21.32800000 
C      26.91800000      27.44800000      21.93900000 
C      25.88700000      26.94900000      20.97300000 
O      24.96600000      26.19000000      21.32400000 
C      26.63700000      28.88300000      22.34600000 
C      25.41400000      28.97400000      23.23600000 
C      25.68800000      28.37900000      24.61600000 
N      24.65100000      27.42800000      24.97800000 
C      24.21300000      27.19500000      26.20200000 
N      24.75400000      27.80000000      27.25200000 
N      23.21000000      26.35000000      26.36600000 
H      28.70700000      28.21400000      21.14200000 
H      26.89000000      26.79500000      22.79100000 
H      27.49800000      29.25900000      22.87600000 
H      26.52300000      29.48600000      21.46300000 
H      25.11600000      30.00500000      23.34000000 
H      24.58600000      28.45500000      22.77700000 
H      26.64700000      27.88500000      24.63200000 
H      25.71900000      29.16700000      25.34300000 
H      24.25700000      26.86300000      24.25600000 
H      25.55800000      28.37100000      27.16600000 
H      24.37800000      27.66900000      28.16300000 
H      22.82200000      25.90200000      25.56700000 
H      22.86900000      26.13000000      27.27200000 
N      26.00100000      27.39500000      19.73500000 
C      25.04900000      27.05300000      18.72600000 
C      25.09500000      25.60300000      18.37800000 
O      24.03400000      24.95500000      18.27500000 
H      26.73900000      28.01400000      19.47500000 
H      24.04800000      27.26800000      19.05100000 
H      25.27600000      27.63300000      17.84900000 
N      26.26600000      25.02400000      18.14800000 
C      26.27900000      23.63900000      17.75100000 
C      25.78100000      22.78100000      18.87700000 
O      25.03400000      21.81000000      18.65700000 
C      27.66300000      23.19400000      17.32300000 
H      27.13300000      25.51200000      18.22700000 
H      25.58300000      23.49900000      16.94300000 
H      27.62800000      22.16200000      17.01100000 
H      28.00400000      23.79800000      16.49800000 
H      28.37000000      23.30400000      18.12800000 
N      26.19100000      23.08200000      20.10300000 
C      25.72300000      22.29400000      21.21600000 
C      24.23000000      22.42100000      21.32300000 
O      23.51400000      21.41900000      21.46500000 
C      26.43700000      22.71600000      22.49700000 
C      25.69700000      22.19600000      23.71800000 
C      27.86000000      22.18400000      22.47200000 
H      26.78900000      23.86100000      20.27600000 
H      25.91100000      21.25100000      21.02900000 
H      26.46000000      23.79100000      22.52500000 
H      26.28700000      22.36300000      24.60700000 
H      24.74200000      22.68300000      23.84800000 
H      25.52600000      21.13800000      23.62200000 
H      28.41200000      22.54900000      23.32700000 
H      27.84400000      21.10100000      22.51400000 
H      28.37800000      22.49300000      21.57900000 
N      23.71000000      23.64000000      21.27500000 
C      22.29300000      23.81200000      21.42500000 
C      21.55400000      23.12200000      20.30800000 
O      20.49100000      22.51600000      20.54100000 
C      21.92900000      25.28200000      21.42800000 
C      22.19800000      25.95800000      22.73500000 
O      22.90700000      25.45400000      23.62200000 
N      21.61800000      27.14000000      22.89500000 
H      24.28900000      24.45300000      21.21200000 
H      21.96200000      23.34800000      22.33700000 
H      22.48900000      25.79800000      20.66200000 
H      20.88500000      25.39500000      21.20100000 
H      21.75500000      27.64800000      23.73700000 
H      21.01400000      27.52200000      22.20800000 
N      22.05400000      23.21400000      19.09100000 
C      21.38400000      22.60000000      17.97100000 
C      21.26000000      21.12500000      18.19100000 
O      20.18200000      20.52900000      17.98700000 
C      22.15000000      22.84700000      16.68500000 
C      21.72400000      24.08300000      15.93000000 
O      20.83300000      24.82300000      16.43400000 
O      22.29700000      24.26900000      14.81900000 
H      22.87600000      23.75900000      18.91500000 
H      20.39000000      22.99300000      17.87800000 
H      23.20100000      22.92500000      16.89500000 
H      22.02700000      22.00700000      16.01500000 
N      22.35500000      20.46800000      18.54100000 
C      22.28700000      19.03200000      18.65300000 
C      21.39300000      18.66200000      19.80300000 
O      20.63100000      17.68000000      19.76000000 
C      23.66600000      18.40300000      18.84200000 
C      23.96500000      17.28100000      17.85600000 
C      25.26400000      16.60700000      18.26200000 
C      22.85600000      16.24300000      17.78800000 
H      23.21700000      20.95300000      18.68600000 
H      21.81900000      18.65100000      17.76800000 
H      24.41600000      19.17200000      18.74500000 
H      23.75400000      18.01200000      19.84400000 
H      24.08400000      17.72100000      16.87600000 
H      25.51900000      15.80900000      17.58500000 
H      26.08500000      17.31100000      18.28800000 
H      25.14900000      16.18600000      19.25300000 
H      23.14800000      15.43600000      17.13500000 
H      22.66800000      15.83800000      18.77400000 
H      21.92900000      16.65400000      17.42000000 
N      21.49300000      19.42400000      20.88200000 
C      20.70000000      19.16500000      22.05500000 
C      19.23900000      19.19700000      21.70200000 
O      18.44500000      18.33000000      22.11800000 
C      21.07500000      20.20600000      23.09700000 
C      20.23300000      20.15600000      24.36600000 
C      21.11800000      20.35100000      25.58600000 
C      19.14300000      21.21600000      24.32600000 
H      22.13000000      20.19300000      20.90500000 
H      20.89800000      18.17700000      22.43300000 
H      22.11500000      20.04900000      23.32500000 
H      21.00000000      21.17900000      22.64000000 
H      19.76800000      19.18200000      24.43200000 
H      20.53400000      20.35100000      26.49700000 
H      21.85800000      19.56900000      25.65300000 
H      21.63700000      21.30000000      25.51700000 
H      18.51300000      21.16300000      25.20400000 
H      19.60300000      22.19800000      24.29800000 
H      18.52100000      21.11800000      23.44900000 
N      18.83500000      20.20300000      20.94100000 
C      17.44600000      20.30800000      20.57500000 
C      17.05100000      19.16500000      19.68300000 
O      15.94200000      18.60900000      19.82300000 
C      17.19600000      21.63400000      19.88800000 
H      19.47300000      20.91900000      20.66200000 
H      16.83300000      20.22100000      21.45400000 
H      16.15800000      21.71500000      19.60100000 
H      17.43100000      22.44100000      20.56500000 
H      17.81400000      21.72700000      19.01200000 
N      17.89800000      18.79500000      18.73900000 
C      17.59200000      17.69700000      17.85300000 
C      17.29700000      16.44700000      18.63300000 
O      16.35000000      15.70700000      18.30600000 
C      18.78100000      17.47300000      16.91600000 
C      18.82300000      16.08700000      16.30400000 
C      17.71600000      15.79500000      15.30300000 
C      17.37900000      14.32700000      15.33900000 
N      16.49000000      13.94000000      14.21600000 
H      18.76600000      19.28100000      18.62300000 
H      16.69500000      17.91000000      17.29900000 
H      18.74800000      18.22700000      16.14500000 
H      19.67800000      17.62900000      17.48900000 
H      19.78000000      15.94800000      15.82200000 
H      18.78200000      15.35700000      17.09700000 
H      16.82400000      16.35900000      15.53700000 
H      18.02800000      16.08000000      14.31000000 
H      18.26000000      13.71200000      15.27000000 
H      16.87000000      14.10000000      16.25600000 
H      16.00400000      13.05400000      14.47100000 
H      15.82300000      14.66000000      14.00400000 
H      17.02100000      13.75900000      13.38700000 
N      18.10900000      16.14100000      19.63900000 
C      17.88600000      14.95000000      20.42700000 
C      16.47700000      14.94200000      20.93800000 
O      15.74300000      13.94900000      20.84900000 
C      18.84500000      14.95000000      21.62500000 
C      18.38000000      14.13100000      22.78500000 
C      17.84500000      14.63700000      23.92800000 
C      18.38200000      12.68700000      22.93300000 
N      17.51800000      13.61000000      24.78500000 
C      17.84200000      12.40600000      24.20500000 
C      18.78800000      11.63000000      22.12300000 
C      17.73100000      11.10700000      24.68300000 
C      18.67400000      10.34300000      22.59800000 
C      18.15800000      10.08600000      23.87100000 
H      18.89200000      16.73300000      19.84000000 
H      18.00500000      14.06600000      19.82600000 
H      19.81400000      14.62300000      21.27900000 
H      18.94500000      15.97200000      21.95200000 
H      17.66500000      15.65200000      24.19100000 
H      17.12000000      13.72700000      25.68600000 
H      19.17700000      11.81100000      21.14200000 
H      17.33000000      10.91300000      25.65800000 
H      19.00400000       9.52100000      22.00200000 
H      18.09800000       9.07300000      24.21600000 
N      16.08900000      16.04900000      21.55700000 
C      14.81800000      16.09300000      22.22100000 
C      13.69500000      15.97700000      21.23000000 
O      12.64700000      15.37400000      21.50100000 
C      14.73200000      17.40200000      22.99800000 
C      13.40600000      17.61200000      23.61300000 
N      12.83300000      16.70800000      24.48300000 
C      12.48500000      18.59800000      23.46800000 
C      11.60400000      17.16200000      24.82700000 
N      11.35900000      18.30100000      24.23300000 
H      16.69300000      16.84100000      21.59200000 
H      14.72700000      15.25500000      22.88900000 
H      15.51300000      17.38300000      23.74600000 
H      14.94500000      18.22000000      22.32500000 
H      13.22700000      15.84000000      24.75000000 
H      12.55200000      19.48900000      22.89300000 
H      10.96500000      16.65000000      25.50700000 
N      13.87200000      16.59800000      20.07100000 
C      12.82000000      16.65000000      19.09600000 
C      12.47400000      15.28600000      18.56500000 
O      11.29300000      14.92800000      18.44700000 
C      13.27500000      17.56500000      17.97300000 
C      12.22600000      17.74400000      16.89100000 
C      10.93100000      18.28300000      17.41400000 
O       9.84300000      17.80200000      17.07200000 
N      11.01700000      19.31500000      18.25100000 
H      14.71800000      17.09900000      19.89600000 
H      11.92100000      17.02200000      19.55500000 
H      13.53600000      18.51200000      18.41500000 
H      14.17900000      17.17000000      17.54500000 
H      12.59800000      18.43000000      16.14600000 
H      12.01100000      16.81000000      16.40000000 
H      11.88500000      19.72500000      18.49800000 
H      10.19200000      19.71200000      18.63500000 
N      24.21300000      15.90500000      31.25800000 
C      24.84600000      16.17200000      29.99900000 
C      26.33700000      16.07700000      30.13600000 
O      26.91200000      16.52400000      31.15500000 
C      24.45300000      17.58900000      29.57800000 
C      24.50100000      17.83800000      28.10900000 
C      25.34100000      18.78500000      27.55800000 
C      23.61600000      17.16100000      27.27900000 
C      25.29700000      19.06100000      26.19900000 
C      23.56600000      17.42600000      25.93200000 
C      24.41000000      18.38400000      25.40100000 
O      24.30400000      18.60900000      24.05000000 
H      23.77400000      16.65800000      31.71700000 
H      24.50800000      15.45500000      29.27300000 
H      23.44200000      17.74400000      29.91600000 
H      25.07900000      18.28900000      30.09800000 
H      26.02400000      19.31600000      28.18300000 
H      22.96500000      16.42600000      27.70100000 
H      25.95100000      19.79500000      25.77500000 
H      22.89600000      16.90400000      25.28800000 
H      24.98400000      19.16300000      23.68300000 
H      29.07271101      14.96761819      22.29753561 
H      27.67344895      12.38950152      24.67289349 
H      25.30505704      10.72967867      12.65327673 
H      28.37347327      12.87407709      16.25486424 
H      28.90676664      15.33599717      14.72591490 
H      30.73565617      18.32065642      12.99265985 
H      28.76841395      26.90097865      21.85518966 
H      13.20162805      14.65282342      18.30109691 
H      23.56758457      15.28803382      31.14489979 
H      26.87985274      15.65420662      29.41035776 
