 50 
 
N               191.1120000000       74.2670000000      109.9090000000
C               191.2280000000       74.8980000000      111.2060000000
C               192.1770000000       76.0790000000      111.1490000000
O               192.8820000000       76.3020000000      110.1560000000
C               191.7660000000       73.8780000000      112.2160000000
C               190.8820000000       72.6450000000      112.3380000000
O               191.3730000000       71.5630000000      112.6900000000
N               189.6080000000       72.7800000000      112.0060000000
H               191.6940000000       73.6510000000      109.7600000000
H               190.3510000000       75.2130000000      111.4750000000
H               192.6580000000       73.6060000000      111.9500000000
H               191.8450000000       74.3010000000      113.0850000000
H               189.0830000000       72.0990000000      112.0290000000
H               189.3050000000       73.5490000000      111.7670000000
N               192.0810000000       76.8700000000      112.1960000000
C               192.8670000000       78.1010000000      112.4350000000
C               194.3120000000       78.1090000000      111.8810000000
O               194.6540000000       78.9940000000      111.0890000000
C               192.8670000000       78.4670000000      113.9350000000
C               192.6990000000       77.2730000000      114.8290000000
C               193.9130000000       76.4020000000      114.8830000000
C               193.7070000000       75.2430000000      115.8130000000
N               193.2110000000       75.7210000000      117.1240000000
H               191.5270000000       76.7080000000      112.8340000000
H               192.4050000000       78.7780000000      111.9160000000
H               193.6990000000       78.9140000000      114.1540000000
H               192.1520000000       79.0980000000      114.1090000000
H               192.4850000000       77.5750000000      115.7260000000
H               191.9450000000       76.7480000000      114.5190000000
H               194.1190000000       76.0740000000      113.9940000000
H               194.6760000000       76.9240000000      115.1760000000
H               193.0720000000       74.6190000000      115.4270000000
H               194.5410000000       74.7620000000      115.9310000000
H               193.4900000000       75.1710000000      117.7660000000
H               193.5230000000       76.5400000000      117.2790000000
H               192.3210000000       75.7400000000      117.1160000000
N               195.0720000000       77.0830000000      112.2240000000
C               196.4450000000       76.9900000000      111.8050000000
C               196.7010000000       76.3750000000      110.4150000000
O               197.7650000000       76.6380000000      109.8300000000
C               197.3250000000       76.2790000000      112.8840000000
C               196.7990000000       74.8770000000      113.2510000000
O               195.8180000000       74.4250000000      112.6170000000
O               197.3520000000       74.2520000000      114.1890000000
H               194.8010000000       76.4240000000      112.7060000000
H               196.7100000000       77.9180000000      111.7110000000
H               198.2350000000       76.2030000000      112.5560000000
H               197.3570000000       76.8280000000      113.6830000000
H               190.3006301901       73.8851988847      109.8321433802
H               196.0165312531       75.7759156984      109.9995477956
