 69 
 
N                20.6161112446       31.4557695725       24.9776046369
C                19.7364900227       32.2148551950       25.8367152384
C                20.4554785381       32.7085663360       27.1030518431
O                21.3587349185       32.0810312015       27.6401604989
C                18.5668865165       31.3544888909       26.3155711566
C                17.6365537543       30.9081987686       25.1907929101
C                16.3919015421       30.2584810018       25.7864098980
N                15.5114125181       29.8099576748       24.7203230083
C                14.3634707378       29.1690272955       24.8961042128
N                13.9088814874       28.9169416006       26.1230315150
N                13.6301545356       28.7904914326       23.8464163366
H                20.7032156628       30.4688939021       25.1715702615
H                19.3872925649       33.0869453654       25.2745192707
H                18.9738977077       30.4806586186       26.8272202028
H                18.0072647113       31.9412024583       27.0478712630
H                17.3530354236       31.7813110811       24.6025659689
H                18.1469132394       30.1945714399       24.5434454208
H                16.6905679725       29.3972694111       26.3941155440
H                15.8849464638       30.9943035073       26.4180730241
H                15.8440826364       29.9731851673       23.7808163783
H                14.3376495676       29.3302194725       26.9325815948
H                12.9922692631       28.5079873566       26.2161440075
H                13.9876943133       28.9297068660       22.9157113391
H                13.0049753466       27.9859570959       23.9375114030
N                19.9811619985       33.8660967004       27.5725300457
C                20.3826510836       34.4104107390       28.8504300568
C                20.0664163332       33.4248150308       29.9899755510
O                19.1732548189       32.6004647869       29.9340531751
C                19.6715978622       35.7521453626       29.0543432308
C                18.1494936971       35.6202714149       29.1010812573
C                17.5162398408       35.3532734284       27.6976220275
O                17.9281622172       36.0536707794       26.7448359195
O                16.6507644300       34.4592652291       27.6289307624
H                19.1826052015       34.2954751700       27.1316324278
H                21.4713320007       34.5577098165       28.8168275929
H                20.0380510760       36.2289339832       29.9646429874
H                19.9253504109       36.3889048487       28.2031128540
H                17.8264033029       34.8208220588       29.7690858989
H                17.7202782507       36.5603253472       29.4537061475
N                20.8655046600       33.5696617228       31.0709935718
C                20.7443043906       32.7358212730       32.2478744290
C                21.3445297358       31.3287863921       32.1128042163
O                21.1987272042       30.4918031080       32.9911248660
H                21.6051602017       34.2539622559       31.0525657386
H                21.2377828254       33.2227681239       33.0902922912
H                19.6878009519       32.6133420098       32.4999901566
N                22.0614512307       31.1360087715       31.0057502349
C                22.7148477338       29.9018032955       30.6468707781
C                24.1111397070       30.2560758403       30.1171204823
O                24.4333936349       31.4090044928       29.8745160567
C                21.9007127290       29.1663900933       29.5646983558
C                20.5486812379       28.7439030672       30.0717373482
C                20.4143172083       27.7406846886       31.0261467427
C                19.3959803307       29.3521111477       29.5941624701
C                19.1709696210       27.3453766876       31.4717747145
C                18.1449363150       28.9576523782       30.0257448412
C                18.0212982091       27.9473158384       30.9704197002
O                16.8078950951       27.5054127412       31.4073212658
H                22.1025749385       31.8610878002       30.3030330620
H                22.7816708305       29.2974320746       31.5576359610
H                21.7739321550       29.8584683246       28.7298470662
H                22.4649568015       28.2946303827       29.2300505458
H                21.2900952494       27.2642343658       31.4387078474
H                19.4736462517       30.1686737874       28.8940740594
H                19.0745756433       26.5728161996       32.2177599806
H                17.2667693947       29.4505469456       29.6362835545
H                16.1146567972       28.1084840130       31.1017189115
H                20.3269534277       31.5113413857       24.1271344549
H                24.7850804041       29.5338054000       29.9617842414
