 105 
 
N               224.4756080598       78.4254708240      115.3788258571
C               223.3524042456       77.6146498898      114.9694211750
C               223.8029917425       76.4776199389      114.0521569320
O               224.7279560833       76.5908594455      113.2579756860
C               222.2921329181       78.4491164831      114.2229596910
C               221.6464157812       79.4449116858      115.1397010245
C               222.2724214632       80.6488711322      115.4417320083
C               220.4196270730       79.1674695522      115.7253573060
C               221.6979761106       81.5469267141      116.3183133444
C               219.8188609699       80.0739701334      116.5800623783
C               220.4628959416       81.2668954226      116.8927834702
O               219.9400294712       82.1572746468      117.7723016539
H               225.0921974770       78.7480833212      114.6477182643
H               222.9127832238       77.1983761175      115.8798029547
H               222.7715150816       78.9451208516      113.3788733798
H               221.5441300901       77.7626659590      113.8237268770
H               223.2197265054       80.8855217762      114.9808735533
H               219.9356509128       78.2281455708      115.5041571884
H               222.1891818088       82.4758694239      116.5573354020
H               218.8446540032       79.8524262238      116.9900187948
H               219.0304950128       81.9024975528      117.9842508426
N               226.6370318565       77.1388165781      110.4563330882
C               226.1661061718       77.4265928701      109.1179904764
C               226.4852106799       78.8737989281      108.7427236212
O               226.3604608188       79.7845478081      109.5576734697
C               224.6458905211       77.2386289447      109.0500321743
C               224.1650656001       75.8576832566      109.5155898970
C               222.6381984153       75.8344748114      109.4903882518
C               224.7399714337       74.7344868214      108.6561194152
H               225.9546352006       77.0630398901      111.1976863063
H               226.6843670174       76.7546533649      108.4253420003
H               224.1728089620       77.9965007998      109.6796445242
H               224.3190981119       77.4081560198      108.0224971469
H               224.4860098149       75.7046869455      110.5512232791
H               222.2656890106       74.9049482991      109.9153447368
H               222.2354819613       76.6654847266      110.0646587165
H               222.2725326547       75.9130321579      108.4689697079
H               224.2706969524       73.7875004024      108.9132042517
H               224.5490134162       74.9257686707      107.6026501072
H               225.8120771912       74.6339980029      108.8081683297
N               226.8422233937       79.1050954090      107.4766827193
C               227.0628332578       80.4586659775      106.9990005502
C               225.7251290825       81.2101031465      107.0959663605
O               224.7863021901       80.9284906140      106.3691799121
C               227.5408184788       80.4166815714      105.5405483963
O               228.5764359038       79.4580636277      105.4678925052
C               228.0022202007       81.8007216838      105.0946175037
H               227.0209731129       78.3557390321      106.8272036972
H               227.8220755842       80.9340425533      107.6304369611
H               226.6871145847       80.0931540483      104.9212881387
H               229.0461725695       79.5787411177      104.6328511447
H               228.3016265019       81.7770814719      104.0497119317
H               227.1920828671       82.5160275277      105.2044578564
H               228.8483628670       82.1219211288      105.6973925489
N               225.6791420425       82.1838205954      108.0206678759
C               224.4724626662       82.9242687521      108.2964736590
C               223.7248635717       82.5142000524      109.5655793700
O               222.7974044799       83.1915275849      109.9955619741
H               226.4481453513       82.2874966118      108.6674416353
H               224.6915554428       83.9923901244      108.3701195320
H               223.7919958299       82.7690760516      107.4528307717
N               224.1498157834       81.3983291782      110.1613287653
C               223.5694184383       80.9298662270      111.3998432880
C               222.1803350974       80.2999005061      111.2058729006
O               222.0398344995       79.1093264066      110.9665991764
H               224.9312199147       80.8586958409      109.7937936407
H               224.2403588697       80.1681881822      111.7997543762
H               223.4797312220       81.7692331849      112.0967630620
N               221.1622974415       81.1469703810      111.4032565081
C               219.7794381340       80.7105634769      111.4672524643
C               219.0203404006       81.1765867908      110.2241704108
O               218.8560182956       82.3730048182      109.9995736881
C               219.1250719797       81.3274069764      112.7099887532
C               217.6846010499       80.8559203345      112.9458688215
C               217.6312295192       79.3955732888      113.3871342134
C               217.0291106923       81.7255280361      114.0177786764
H               221.3359496437       82.1437622135      111.3549136008
H               219.8067921614       79.6223447330      111.5265810892
H               219.7335940349       81.0862479120      113.5832743973
H               219.1211834622       82.4103239867      112.5684767361
H               217.1128083136       80.9691238819      112.0160477875
H               216.6037131406       79.1221807648      113.6132826393
H               217.9894384569       78.7273401511      112.6086774242
H               218.2359258234       79.2581812494      114.2779525349
H               215.9992198589       81.4081624115      114.1738190221
H               217.5754404286       81.6346941699      114.9526638388
H               217.0169404845       82.7689500386      113.7135966188
N               218.5834013778       80.2509476420      109.3579642431
C               217.8155817486       80.7149648759      108.2103051770
C               216.5248115032       81.3681685324      108.7151379840
O               215.8815662751       80.9103509329      109.6526212735
C               217.5538219096       79.4515052471      107.3864571334
C               217.5498797664       78.3456075870      108.4392951591
C               218.5926054302       78.8013275827      109.4604271628
H               218.4029728397       81.4634734241      107.6692035875
H               216.6100482638       79.4971306745      106.8463361904
H               218.3685624337       79.3034637506      106.6794066264
H               216.5671602250       78.2922859108      108.9084386913
H               217.7782735392       77.3658915001      108.0271710950
H               218.3198276413       78.4628213835      110.4597489754
H               219.5901114557       78.4233155039      109.2132995541
H               224.1761533331       79.1675552530      115.7906966705
H               223.3362911328       75.5938183329      114.0851002500
H               227.0703548967       76.3500055416      110.4592125901
H               216.1796513543       82.1979210278      108.2765319330
