 438 
 
N                24.0830303716       26.4757210060       23.3145094417
C                23.8271127375       25.2215937403       22.6684731222
C                23.3521459830       24.0946493002       23.5644316305
O                24.1631573500       23.2917533712       23.9890045303
C                25.0422626808       24.7708881310       21.9278482123
C                25.5988896480       25.7481262011       20.9797381279
C                26.8611788904       26.1670874637       20.8520121449
C                24.8791704201       26.4060355184       19.9445796486
N                26.9945040721       26.9977507179       19.8548246863
C                25.8057391086       27.1942450538       19.2437637217
C                23.5721779101       26.4277411179       19.5123024246
C                25.4110284162       27.9513549746       18.1643987628
C                23.2368232710       27.1645915457       18.4695683641
C                24.1399256091       27.9175816456       17.8015067661
H                24.9670953940       26.5725298869       23.5872750315
H                23.0457744700       25.4269090608       22.0374162870
H                25.7610440356       24.5137636013       22.6100637089
H                24.8389966400       23.8975084525       21.4338307659
H                27.6091013588       25.8664404133       21.4611379511
H                27.7898657774       27.4178948574       19.5804776593
H                22.8954425062       25.8697138814       20.0099004862
H                26.0919635438       28.5109998604       17.6762380204
H                22.2736249249       27.1640833077       18.1605065223
H                23.8457064924       28.4693777615       17.0064791663
N                18.2061850498       27.3622493494       16.0333335457
C                19.2672401303       27.3859308114       15.0797473208
C                20.2221980592       26.1920324295       15.0709643615
O                21.3430404294       26.3292699451       15.5290037272
C                20.0624622046       28.6695350762       15.1873397833
C                19.4168118766       29.7780825235       14.4761940450
C                20.2369320730       29.0214669884       16.6009956362
H                18.4258176324       27.7551520942       16.8467269018
H                18.7582591481       27.3279897822       14.1910769989
H                20.9848157017       28.5028959501       14.7639543003
H                19.9609547752       30.6308943115       14.5497550195
H                19.2987621834       29.5694992668       13.4897135346
H                18.4999315451       29.9601412371       14.8709004470
H                20.7840707680       29.8689855881       16.7041919291
H                19.3337228890       29.1835759360       17.0348329149
H                20.7058900824       28.2817353983       17.1125972345
N                19.8195207660       25.0416948377       14.5644186220
C                20.6352399610       23.8504009054       14.4588966368
C                22.1067146315       24.1694439159       14.3703122094
O                22.5278650939       24.7912785447       13.4154051142
C                20.2863244938       23.0385855096       13.2612622317
C                21.1273523007       21.8387393155       13.0500615320
C                21.4511180455       21.0105210580       14.0910697779
C                21.5337400542       21.4252718109       11.8088870478
C                22.0926954790       19.8753824221       13.9127544778
C                22.1746999791       20.2904347673       11.6131009539
C                22.4677850010       19.4637437576       12.6617050434
O                23.0356111724       18.2485665071       12.4968761502
H                18.9607036105       24.9270573921       14.2214370561
H                20.4695865989       23.3132693663       15.3168327193
H                19.3056054239       22.7538659377       13.3122113917
H                20.3400955473       23.6384442936       12.4362415645
H                21.1789881892       21.2923388442       15.0186517313
H                21.3232313612       22.0235377060       11.0242465391
H                22.3190145277       19.2804852114       14.6935326037
H                22.4615443277       19.9994372135       10.6895942060
H                23.2169965924       18.1373688778       11.6203402301
N                22.9465919539       23.7106621472       15.2805152338
C                24.3405637621       24.0619104881       15.2837168773
C                25.3389345486       23.4707951589       14.2700293993
O                26.5140968750       23.7447140222       14.3795474529
C                24.9264083418       23.9761144683       16.6751381696
C                26.0906969845       24.8405372287       16.9870583321
C                27.3752676831       24.1346290937       17.1218941208
N                28.4039615327       24.6259822103       16.2524296031
C                29.7239760059       24.5282885919       16.4189602142
N                30.1511531825       23.9816596447       17.4047066850
N                30.4909496867       24.9994437128       15.5744837298
H                22.6882469829       23.1529838117       15.9780766532
H                24.2769096557       25.0202985749       14.9176447250
H                24.1847035813       24.1508132130       17.3594459954
H                25.2045239020       23.0057818202       16.8443990291
H                26.1818963629       25.5417035274       16.2495024347
H                25.9068074134       25.3842800756       17.8338430993
H                27.7095822941       24.1875283370       18.0869342193
H                27.2240750537       23.1367100008       16.9550260629
H                28.0845325949       25.0516643786       15.4826903372
H                29.6246815722       23.5819481582       18.1045459516
H                31.0794859267       23.8684049221       17.6074023275
H                30.2384902386       25.4366584132       14.7603823121
H                31.4408775402       24.9603284188       15.6400731661
N                24.9177313571       22.6687815606       13.3009226688
C                25.7770829091       22.0895131186       12.2957984035
C                25.2208657947       22.2351111223       10.8968447311
O                25.6246399750       21.5666622491        9.9677991495
C                26.0654683211       20.6377108690       12.5490434091
C                26.7543578809       20.3716401184       13.8249772286
C                28.0633487878       20.7220396079       14.0198807134
C                26.0955471175       19.8834709881       14.9198516026
C                28.6449118452       20.6214354045       15.1958940560
C                26.6637449045       19.7780610696       16.0991926426
C                27.9569699168       20.1583740183       16.2786993366
O                28.5344689700       20.1756040060       17.4955765815
H                24.0256077058       22.4178777137       13.2134873289
H                26.6627194045       22.6068940491       12.3707562284
H                25.1832400648       20.1243451085       12.5235475442
H                26.6120983415       20.2541051902       11.7751898422
H                28.5803865893       21.0695884942       13.2263801552
H                25.1356732921       19.5975917668       14.8038879848
H                29.6086625656       20.8857982576       15.3275129145
H                26.1597230386       19.4196948216       16.8960745010
H                27.9433117773       19.8405388586       18.0881032931
N                24.2530526432       23.1201707074       10.7545811388
C                23.5393116379       23.3847454384        9.5525377959
C                24.3976853158       23.9232670121        8.4359721303
O                24.4575171744       25.1211313530        8.2621121272
C                22.4116265054       24.3297255636        9.8067178611
C                21.7799981471       24.8937867123        8.5629742623
O                21.8471701850       26.0862331889        8.3315057096
N                21.2271402435       24.0693207353        7.8255032938
H                23.9723508483       23.6551392375       11.4631033653
H                23.2049174584       22.4719967929        9.2279128091
H                21.6921900922       23.8736234769       10.3704632151
H                22.7497641445       25.0974730651       10.3945470143
H                20.8099753174       24.2998823112        7.0067946831
H                21.1690922619       23.1400594383        8.0031268873
N                25.0309129518       23.0451073323        7.6851910323
C                25.8821913186       23.3423835674        6.5449955856
C                26.5891198766       24.6986957814        6.5328853077
O                27.7484631601       24.8156419982        6.9033769243
C                25.1419255387       23.1322319931        5.2725984421
H                24.9638460243       22.1302171404        7.8517356301
H                26.6656583405       22.6840333445        6.6515749147
H                25.7210321049       23.3442312900        4.4640217903
H                24.8217628360       22.1724383967        5.1789891170
H                24.3254619123       23.7358385204        5.2345003099
N                25.8983348711       25.7228355950        6.0880197807
C                26.3692101694       27.0790263520        5.9880034172
C                26.8393402261       27.7069778858        7.2879435127
O                27.8914697467       28.3200045690        7.3606658046
C                25.3242926727       28.0086543404        5.3594506081
C                24.5075188539       27.2638632620        4.3723075907
C                24.4752868460       28.6609478323        6.4001955226
H                25.0160796598       25.6310775847        5.8095247592
H                27.2052151210       26.9818010050        5.3973850035
H                25.8160646551       28.7677326049        4.8683966285
H                23.8074735057       27.8611393974        3.9426576927
H                25.0809140827       26.8739793933        3.6299550483
H                24.0208509652       26.4977827748        4.8256463083
H                23.7881207862       29.2858158197        5.9875231887
H                23.9728505873       27.9616735813        6.9390550183
H                25.0318387018       29.2117943060        7.0499757597
N                26.0377939533       27.5793146938        8.3306781055
C                26.2900202008       28.1355231786        9.6237931363
C                27.2427541422       27.3351457767       10.4957871104
O                27.7469081685       27.8293317795       11.4894665888
C                24.9980622770       28.4288618587       10.3454203904
C                24.8983775576       28.9314174087       11.7605780635
C                23.5424242230       29.4505739171       12.0202490829
C                25.2184191012       27.8651137755       12.7296956140
H                25.2370904800       27.1050427753        8.2837740334
H                26.7977669069       29.0123800304        9.4520791871
H                24.4683891190       29.0793279052        9.7608936773
H                24.4594619518       27.5615930647       10.3201021011
H                25.5822251711       29.6894164263       11.8735746822
H                23.4585181906       29.8097886638       12.9656282932
H                23.2980071660       30.1992799697       11.3790242805
H                22.8564957846       28.7100578508       11.9076339907
H                25.1784144559       28.2068017312       13.6846956694
H                24.5573318948       27.1002320854       12.6426897787
H                26.1479292736       27.4909173640       12.5730669942
N                27.5285247982       26.0972003502       10.1585767586
C                28.4131885917       25.3017837341       10.9643273543
C                29.7793522476       25.8918475265       11.2026627831
O                30.0669164452       26.3756023383       12.2960839090
C                28.6489303628       23.9140630530       10.4997776134
C                29.9762034162       23.3448822343       10.9954543916
O                30.1413475185       23.2750039070       12.2245255926
O                30.8378092107       23.0230171957       10.1573952911
H                27.1952669179       25.6682915111        9.4028384472
H                27.8964980610       25.3128807696       11.8524150891
H                27.8889743581       23.2994602948       10.7923231008
H                28.6295072806       23.8881033129        9.4795915850
N                30.6391269608       25.8398729063       10.1756782859
C                32.0033215080       26.3287356544       10.1633752517
C                32.0878793208       27.8020724010       10.4178726480
O                33.1547908587       28.3603675338       10.6019019313
C                32.4453106073       26.0357523535        8.8005535821
C                31.2956628179       26.5041794064        8.0846733420
C                30.2240823708       25.7978800731        8.7897393844
H                32.5824178659       25.8981851631       10.8899888241
H                33.3180263950       26.4984560778        8.5426855861
H                32.6175795219       25.0390374345        8.6378473056
H                31.2038296717       27.5247203697        8.1486097958
H                31.3364498259       26.3143111569        7.0818779800
H                29.2999032126       26.2215440234        8.6543527156
H                30.1095804595       24.8354996312        8.4506162533
N                30.9543269173       28.4612546386       10.3877282501
C                30.8510972160       29.8458085464       10.6326082330
C                30.8166693087       30.1287509930       12.1159175554
O                31.2341198886       31.1832477901       12.5594761692
C                29.6769384427       30.4535368321        9.9578935095
C                30.0471144979       31.7048875079        9.2611651127
C                28.8724831401       32.3038309524        8.6079939099
C                30.6879889831       32.6139625426       10.2244771171
H                30.1380554465       28.0513618455       10.2112477699
H                31.6894399803       30.2933840690       10.2392784956
H                29.2562973578       29.7839438564        9.3081855779
H                28.9401482891       30.6459457463       10.6408671052
H                30.7358115871       31.4971809302        8.5269525204
H                29.1121775582       33.1575841981        8.1121251912
H                28.4500745702       31.6677703591        7.9345698541
H                28.1618223199       32.5364150212        9.2962969701
H                30.9844170167       33.4734280082        9.7795455277
H                30.0371089666       32.8503175873       10.9667381805
H                31.5038658327       32.1882979639       10.6535323298
N                30.3106046400       29.1945940229       12.8965258455
C                30.2340542130       29.2759449771       14.3311497407
C                31.4770732741       28.7620518195       15.0209205617
O                31.6793565455       28.9337191935       16.1986929426
C                29.1544155462       28.4215666910       14.9847449388
C                29.1525252519       28.6160542164       16.4527460342
C                27.8211172050       28.6722853961       14.4180447325
H                29.9677620819       28.3962918234       12.5612069374
H                30.0612211547       30.2791887479       14.4735218708
H                29.3915231500       27.4425358699       14.7775190329
H                28.4593018835       28.0307567006       16.9039077199
H                30.0566873101       28.3960381173       16.8603964748
H                28.9423893451       29.5840745598       16.6760310428
H                27.1193737143       28.0720261047       14.8421756907
H                27.5452923774       29.6346096713       14.5788068327
H                27.8039184100       28.5064959966       13.4159974855
N                32.3048550691       28.0423330100       14.2753053828
C                33.5197755089       27.4915534933       14.7575447952
C                34.6166828021       28.4833941266       14.3938448639
O                35.7028135518       28.4726502967       14.9346598579
C                33.8739985166       26.1096854303       14.2068522035
O                35.0985506099       25.6237657608       14.7139916516
C                33.8822165783       26.1457578190       12.7351146882
H                32.1548900372       27.8771895179       13.3716952317
H                33.4386816125       27.3530876816       15.7746353573
H                33.1432236811       25.4488227181       14.5065916906
H                35.6462171420       26.3316755351       14.8384856019
H                34.0978643099       25.2334558930       12.3417207520
H                32.9841906945       26.4377689998       12.3642919027
H                34.5835004465       26.8011633963       12.4039109652
N                34.3417932163       29.3508183589       13.4359415758
C                35.2705197846       30.3612728900       13.0240641205
C                35.3806223531       31.2500303687       14.2328805971
O                36.4310378715       31.4981044757       14.7521341749
C                34.8319894814       31.1266310626       11.8355225117
H                33.5307897975       29.3813869358       12.9807967263
H                36.1774077364       29.9468726165       12.7689285730
H                35.5234897457       31.8196243358       11.5591919543
H                34.6737363715       30.5151923523       11.0390167745
H                33.9642484955       31.6154213975       12.0308899807
N                34.2083375198       31.6993472155       14.6732082389
C                34.0328212960       32.5458286591       15.8151585759
C                34.8534997427       32.0578082799       16.9939266369
O                35.9774116839       32.4659435900       17.1781935812
C                32.6031398073       32.7073948067       16.2036208158
C                32.3138575266       33.4081543090       17.5031459393
C                33.1740965298       34.5850506648       17.6726076201
C                30.8940317532       33.8012459429       17.5706356009
H                33.4037162560       31.4822699975       14.2577690025
H                34.4091804240       33.4659897075       15.5548138908
H                32.1078222178       33.2089327209       15.4630194567
H                32.1739753764       31.7799033482       16.2184216624
H                32.5281187753       32.7557241063       18.2680046343
H                32.9988217071       35.0461773354       18.5596630453
H                34.1579490390       34.3339188800       17.6417815281
H                32.9977954587       35.2555484077       16.9320162394
H                30.6771368962       34.2675746587       18.4464070979
H                30.6707755388       34.4421928731       16.8145140137
H                30.2784674415       32.9975712089       17.4883483557
N                34.2836528174       31.1797072135       17.8052469852
C                34.9312295558       30.5779041311       18.9465407683
C                36.4473455351       30.6220775508       18.8385590500
O                37.1237402031       31.3507850058       19.5524294368
C                34.4660282369       29.1695469026       19.1674063449
C                32.9955312661       28.9668240191       19.3924232282
C                32.6410212728       27.5298883526       19.4919713137
C                32.5866303482       29.7272124203       20.6010381022
H                33.4100383199       30.8820415940       17.6816045538
H                34.6681251993       31.1567015293       19.7550583585
H                34.7712123694       28.6072512006       18.3700901671
H                34.9667063954       28.7715621714       19.9668764054
H                32.4845235200       29.3320175048       18.5789899916
H                31.6416820135       27.4039466771       19.6242231011
H                32.9084212108       27.0190861375       18.6548268155
H                33.1162430935       27.1041224924       20.2810114464
H                31.5896868991       29.6427251809       20.7783229162
H                33.0784144502       29.3807613127       21.4201620498
H                32.7995583173       30.7169018893       20.5098440321
N                36.9955981510       29.8307746804       17.9384956051
C                38.3921574810       29.7700591528       17.7223771164
C                39.1600231769       31.0129237143       17.3092020403
O                40.2113738184       30.9225739130       16.6905516580
H                36.4935549070       29.2772092911       17.3810316395
H                38.8242972104       29.4163390300       18.5820940583
H                38.5921082451       29.0467347041       17.0251266283
N                38.6610459584       32.1850048845       17.6277159580
C                39.2758618803       33.4369691002       17.3152422231
C                39.5778818846       34.1909351461       18.5830342593
O                40.2788398697       35.1848248732       18.5829842744
C                38.4478774658       34.2649585810       16.4126094316
H                37.8533030632       32.2816360158       18.0843810552
H                40.1552759825       33.2385336845       16.8196275763
H                38.9137221260       35.1338825438       16.1716921047
H                38.2410409658       33.7702892240       15.5499208311
H                37.5665448197       34.4918687308       16.8603181968
N                34.3427647118       38.1370435238       12.7507888341
C                33.5157873324       36.8468553608       12.6755442525
C                32.3813961623       36.9023976163       13.4700754638
O                31.2302965034       36.2060223127       12.8971033914
C                34.6100980096       35.8440850951       13.3432819451
H                34.9513190367       38.2151479563       13.1210050441
H                33.5859039119       36.6173251711       11.8715419428
H                34.0038597535       34.9328262064       13.2404877010
H                35.3373506426       35.7141329124       12.7749268969
H                34.8151016919       36.0103306426       14.1854876723
N                29.8750590481       37.9442961036       10.6282657907
C                29.5195030391       36.8662412666        9.7235999008
C                28.3637984042       35.9623423791       10.1217170275
O                27.4646239889       35.6756498209        9.3579894342
C                30.6565146582       35.9184631851        9.4986778962
C                31.8004816248       36.4290826463        8.6489964757
O                31.7262111492       37.5468768424        8.1773662829
N                32.7634721790       35.6653441497        8.4835079698
H                30.7402058444       37.8533408408       10.9595616938
H                29.2357285060       37.3963718543        8.8908878701
H                31.0173132306       35.6319137661       10.4136172675
H                30.2960121436       35.0518175923        9.0874298889
H                33.5242234704       35.8925781538        7.9664250214
H                32.8300919215       34.7920473551        8.8451489833
N                28.4671511071       35.4318422871       11.3274011552
C                27.5059302852       34.5497308058       11.9004839183
C                26.2450112927       35.3233837234       12.2425060832
O                25.2115105566       34.7525963366       12.5470694687
C                28.0381964222       33.7169912651       13.0627834777
C                27.2344779769       33.6141260143       14.3311462788
C                27.5961416516       32.4180830112       15.1334199169
C                27.3835370215       34.8593149063       15.1109264763
H                29.1799110985       35.6199965475       11.8961864866
H                27.2476488961       33.8541999239       11.1885935936
H                28.2306666051       32.7687196970       12.7294970896
H                28.9557843618       34.0893322383       13.3160061011
H                26.2469156803       33.5048897441       14.0700005578
H                27.0302364962       32.3508395950       15.9749588057
H                27.4648710331       31.5605845544       14.6049530848
H                28.5697053638       32.4632170227       15.4158472830
H                26.8294990481       34.8353260198       15.9617951435
H                28.3547094953       34.9942258692       15.3759788412
H                27.0934245065       35.6723341839       14.5742760308
N                23.9344395240       35.8735885944        9.1612100152
C                23.5472792660       34.5411154488        8.8190576518
C                22.2123218748       34.2399941818        9.4492990126
O                21.2645344562       33.8204282781        8.8174717559
C                24.5460258173       33.5098992599        9.2511268432
C                24.6742397273       32.3809084047        8.3404810504
C                25.1192105447       32.8350659992        6.9833533650
O                26.3335587199       33.0458694001        6.8254138222
O                24.2451197479       33.0189662696        6.1130631383
H                24.3257887970       35.9136386640       10.0048508730
H                23.4777312376       34.4840540647        7.7941783540
H                25.4624423930       33.9499189434        9.3656661150
H                24.2973166333       33.1776614928       10.1858856808
H                25.3314709472       31.6882461582        8.7039419072
H                23.7830415834       31.8905066127        8.2687267607
N                22.1413299988       34.4608473386       10.7500981463
C                20.9673995706       34.2770971139       11.5341372238
C                19.8926476777       35.2481223980       11.0599496585
O                18.7160600397       34.9405355051       11.0323140392
C                21.2794970800       34.4123292199       13.0008675422
C                22.2809158624       33.4280194484       13.5516171209
C                22.8130792588       33.8087879620       14.8950498517
C                21.6509062472       32.0920837584       13.5585907411
H                22.8674639168       34.7688620220       11.2437064422
H                20.6080349844       33.3237045533       11.3908609116
H                21.6021583506       35.3659952215       13.1742064939
H                20.4153807797       34.3301105843       13.5432545530
H                23.1016917849       33.4200390590       12.9330391240
H                23.5009487778       33.1370467959       15.2264305797
H                23.2616253106       34.7210283036       14.8761305032
H                22.0628572169       33.8451176837       15.5768451104
H                22.2888517450       31.3774231156       13.8949057930
H                20.8361583661       32.0920435809       14.1648103193
H                21.3432022793       31.8180322959       12.6290711978
N                18.8108655960       31.6673120209        8.4022987516
C                19.2473202858       30.3783366298        7.9389583296
C                19.9131410484       29.4931527117        8.9828610464
O                20.9503841125       29.7994424217        9.5089406119
C                20.1829997061       30.4545401768        6.7305601954
O                20.6290632141       29.1546872027        6.4098495979
C                21.3078303039       31.3569761824        6.9944814492
H                19.4544747119       32.1247746622        8.8949910801
H                18.3618995957       29.9332500351        7.6753160590
H                19.6505445707       30.8427213725        5.9401627349
H                21.1791298651       29.2080081951        5.6957187094
H                21.9279943160       31.4235694637        6.1918576144
H                20.9922489835       32.2952877594        7.2205070655
H                21.8535359744       31.0155289403        7.7804798911
N                19.2827522977       28.3576650207        9.2603157279
C                19.7194365750       27.4396700922       10.2239014733
C                18.6517747058       27.1469751848       11.2362603607
O                18.9090409012       26.6718083022       12.3161779405
H                18.4944210990       28.1015896724        8.8352164314
H                20.0434006632       26.5691092983        9.7884171506
H                20.5567745087       27.8050204648       10.6928741724
N                14.4075145759       25.6670903460       11.9879547422
C                13.6505280875       24.4745010226       11.7477015857
C                12.3779658782       24.3492376142       12.5728256735
O                12.4389360227       23.8781904608       13.6736771439
C                14.4739965638       23.2660741441       12.0616055437
C                15.5332553084       22.8631670900       11.1147009125
C                16.8617673992       22.9659663919       11.4299640493
C                15.2454470968       22.3471016966        9.8798130589
C                17.8151119224       22.5931570174       10.5998952852
C                16.1903200675       21.9645783022        9.0350252240
C                17.5144699735       22.0746421722        9.3697715075
O                18.5303868793       21.6867361211        8.5464024480
H                14.0686727140       26.1968846776       12.6713825415
H                13.4173813912       24.5260926577       10.7509384365
H                14.8966180108       23.4149792641       12.9802384639
H                13.8421405688       22.4742698094       12.1949106603
H                17.1010114073       23.3468493677       12.3314802700
H                14.2742128322       22.2627309625        9.6203252399
H                18.7864694560       22.6812355433       10.8535492388
H                15.9542180383       21.5864925294        8.1294404011
H                18.1690660099       21.3696636264        7.7835233321
H                23.8980755507       27.1492811236       22.7469634240
H                22.3833219102       24.0175302673       23.7998728564
H                17.4964744181       27.8071984650       15.7041966384
H                39.1989100749       33.8772682841       19.4536624619
H                34.6102912796       38.3710611962       11.9239483026
H                32.4063633962       37.3877158782       14.3440564830
H                29.8232639590       38.7306613280       10.1935854455
H                26.2504620123       36.3231345067       12.2208575031
H                24.5300912583       36.1774227971        8.5588116514
H                20.1467047092       36.1676290798       10.7600121867
H                18.5966226194       32.1834298629        7.6968043717
H                17.6946931622       27.3456477379       11.0252529309
H                15.2503202421       25.4473946405       12.2146977817
H                11.5049150459       24.6579921877       12.1953963986
