 308 
 
N                48.1539292137       36.4363340362       26.7997737698
C                49.5347649940       36.7829385500       26.8490001268
C                50.3201306122       36.2401211632       28.0157778679
O                51.2016126735       36.8944711151       28.5267864953
C                49.7054498047       38.2474761946       26.7018657146
C                49.2674144791       38.7858012606       25.3825883425
O                48.3121422197       38.2472361093       24.8358926826
N                49.9041093457       39.7191284359       24.9289852236
H                47.6023673912       37.0020689390       27.2931142957
H                49.9212916845       36.3091312116       26.0245236067
H                49.1874151152       38.7172953417       27.4482275136
H                50.6786149382       38.5094083546       26.8595717901
H                49.7145163487       40.1367354213       24.0939240955
H                50.6455525297       40.1411172301       25.3546724899
N                53.9874123763       38.1096580427       28.4351778331
C                54.3348547561       39.4654017750       28.7558941956
C                53.6632647649       39.9108254749       30.0533829822
O                53.6391636928       41.0774688586       30.3871129719
C                54.0297899758       40.4770805625       27.6570606601
C                53.9073780573       39.7982151661       26.3188798785
C                55.0628360492       41.5421011172       27.6095711826
C                55.1364543167       39.2237525159       25.7901177420
H                53.3349216380       38.0226463909       27.7776534641
H                55.3581370258       39.4579247591       28.8745149530
H                53.1244035904       40.9111258068       27.8874358310
H                53.1952883172       39.0660815171       26.3755924798
H                53.5341616352       40.4636764968       25.6376668174
H                54.8568639922       42.2346197690       26.8954582952
H                55.1442829261       42.0323231967       28.4979478477
H                55.9741839374       41.1425615672       27.3982126222
H                54.9954627562       38.7765940055       24.8879124873
H                55.8500218864       39.9371067728       25.6733196132
H                55.5084800481       38.5264101540       26.4247911099
N                57.1447810621       37.1578037763       33.0592300869
C                58.5058212508       37.5832754749       33.0290753106
C                58.6362404485       39.0903232151       32.8178624928
O                59.7175460555       39.6342242507       32.7390366870
C                59.2989744897       36.8275460636       31.9901572315
C                58.7513114734       36.8415907031       30.6033358083
C                58.8616462267       38.1762291726       29.8731140214
O                59.9985827158       38.6735231684       29.7488098891
O                57.8145814276       38.7067652718       29.4407460595
H                56.8928043501       36.6621274811       32.3139243690
H                58.9006421833       37.3796822173       33.9590102110
H                60.2512862486       37.2028958526       31.9624665223
H                59.4171616335       35.8583097256       32.2995459763
H                59.2075266291       36.1230910603       30.0332692692
H                57.7688548582       36.5636954019       30.6270389438
N                57.4999530803       39.7782141116       32.7349699181
C                57.4346644694       41.1923945273       32.5283096446
C                57.9417558900       41.9780107635       33.7253386348
O                58.1502944855       43.1750070512       33.6560104759
C                56.0579587619       41.6903003827       32.1568830757
C                55.9482583549       43.1999946542       31.9342444831
O                56.6432421201       43.7319610226       31.0818106666
N                55.1515082919       43.8128852690       32.6526543896
H                56.6657334235       39.3740063365       32.8074065201
H                58.0698063831       41.3865636071       31.7439034427
H                55.7291189052       41.2004429893       31.3185986265
H                55.4013695721       41.4122896380       32.8889481967
H                55.0163587557       44.7503875573       32.6041085965
H                54.6049537804       43.4127269627       33.3155599878
N                61.8687843494       43.1009401816       32.5465323522
C                62.0718516770       44.0659461774       31.4830490911
C                61.6480477238       43.6453880578       30.0638067402
O                61.9717731255       42.5461889285       29.6339701366
C                63.5029846963       44.5305182072       31.4223190741
C                63.7865347452       45.5818288066       30.3756352394
O                63.2228724147       46.6711491901       30.4560798042
N                64.5763329828       45.2795262234       29.4849816215
H                61.2464775626       42.4439394868       32.3310043796
H                61.4497734690       44.8351551463       31.7476854553
H                63.7870401681       44.8719522995       32.3458811248
H                64.1005073823       43.7182073344       31.2570311400
H                64.8105440718       45.8565089364       28.7685295509
H                65.0148120317       44.4405522799       29.4118230619
N                60.9438993927       44.5381019903       29.3351609201
C                60.4863135882       44.3170003867       27.9561093384
C                61.5856816563       44.5132636150       26.9161831995
O                62.7370869313       44.2025460022       27.1376751786
C                59.3441036563       45.2731618384       27.7970108521
C                58.9333228902       45.5963263893       29.1582500109
C                60.1918710725       45.6473228233       29.8924229037
H                60.2032563213       43.3328247056       27.8223945699
H                59.6385234023       46.1135843648       27.2896181523
H                58.5798655891       44.8889604007       27.2338978948
H                58.3976788711       46.4670363031       29.2165158480
H                58.3019153326       44.8822120355       29.5390018050
H                60.6770983479       46.5443846329       29.7709853256
H                60.0733868479       45.5651513447       30.9084665200
N                61.2111370647       45.0727836862       25.7618826576
C                62.0727367941       45.3867343965       24.6491058813
C                61.3498869417       45.7163739730       23.3505771750
O                60.2656278622       45.2293088808       23.0992090870
C                63.1242412938       44.2989522646       24.3853653778
O                64.3259022331       44.5876065774       25.0548470417
C                63.3986271514       44.1250646902       22.9268287142
H                60.3221084878       45.2939739230       25.6016535372
H                62.5639853730       46.2352593307       24.9521227454
H                62.7220483944       43.4149822310       24.7283907813
H                64.1803755845       44.5539581584       25.9454433359
H                64.0699944333       43.3815137564       22.7641904508
H                62.5523534897       43.8966113644       22.4121844939
H                63.7796198129       44.9803112106       22.5369766280
N                61.9749422047       46.5248166958       22.5099335094
C                61.4769978083       46.9374663476       21.2259960144
C                60.7708451651       45.7908517742       20.5069956101
O                59.5858313991       45.7894702162       20.2972186818
C                62.5598314026       47.5320704599       20.3208375158
O                63.3228394823       48.4715124863       21.0462087606
C                61.9790100502       48.1423376844       19.1008628057
H                62.8108204748       46.8888291738       22.7025075711
H                60.7788503654       47.6665885983       21.4189337159
H                63.1645227591       46.7506512102       20.0330536066
H                63.9722237810       48.7939881640       20.5085348341
H                62.7027483827       48.5110010658       18.4897432444
H                61.4352472030       47.4721331647       18.5652472831
H                61.3654505820       48.9119539604       19.3516817904
N                61.5751027642       44.8031888339       20.1246837200
C                61.1846384641       43.6013007951       19.4388113341
C                60.0777055567       42.8420182590       20.1618146647
O                58.9712882180       42.7027219891       19.6902644217
C                62.3516650378       42.7277497876       19.1951703292
H                62.4887260261       44.8246431857       20.2957318416
H                60.7733969243       43.8985316787       18.5442262913
H                62.0856254986       41.8804939280       18.6990293964
H                63.0625647215       43.1972226965       18.6411631152
H                62.7767365605       42.4488950615       20.0748134044
N                60.4294594098       42.3411334469       21.3378488935
C                59.5904614132       41.5881679052       22.2345221271
C                58.1625595369       42.0864066881       22.4352616812
O                57.2351093533       41.2942953537       22.4961423059
C                60.2322222480       41.4083278767       23.5849521728
C                59.3779308673       40.8658037013       24.6666074688
C                59.9285182907       41.0468047973       26.0694934394
O                61.0037567998       40.4818459773       26.3433675485
O                59.2909379607       41.7693930574       26.8605483353
H                61.2896460518       42.4547139624       21.6736149339
H                59.4703940218       40.6913003823       21.7473554577
H                61.0604994382       40.8148770239       23.4949678862
H                60.5967274306       42.3149615046       23.8889183351
H                58.4536882937       41.2979049399       24.6162733250
H                59.2084404301       39.8710557056       24.5048406901
N                57.9774234952       43.3899501594       22.5741934791
C                56.6928839062       44.0123151251       22.7804906080
C                55.8937637668       44.2484221452       21.5088604489
O                54.7959571947       43.7252753985       21.3672644527
C                56.7333980863       45.3404830602       23.5613037377
O                55.4210561739       45.8552639874       23.6843262760
C                57.6149022610       46.3253871017       22.8939892311
H                58.6807942728       44.0003077157       22.5440205587
H                56.1944470865       43.2976561344       23.3266473012
H                57.1194548816       45.1394664107       24.4944245572
H                55.4573641692       46.6307748211       24.1463848043
H                57.6589915170       47.1987672006       23.4117217695
H                58.5632739721       45.9755258256       22.8004100323
H                57.2683398692       46.5349474866       21.9649533271
N                56.4095239962       45.0291714770       20.5845008612
C                55.7715411273       45.3382948135       19.3291979039
C                55.0726379132       44.1424162968       18.7150788269
O                54.2667778328       44.2896801941       17.8153096847
C                56.7009360020       45.9737236380       18.3270427206
C                56.8974929311       47.4691380079       18.3349651945
C                58.1518669946       47.8566263785       17.6245560106
C                55.7030385088       48.1519502771       17.7709109404
H                57.2437016112       45.4328433255       20.6782249996
H                55.0426384337       46.0231510655       19.5617980535
H                57.6127575058       45.5228777843       18.4276833478
H                56.3874104209       45.7115771384       17.3889557255
H                56.9964855159       47.7710687390       19.3121105050
H                58.2975990801       48.8621418157       17.6465604309
H                58.9689781697       47.4171726884       18.0404056182
H                58.1095912449       47.5715237796       16.6509351343
H                55.8032800961       49.1629998951       17.7933295248
H                55.5615302071       47.8757790191       16.8034431115
H                54.8582374732       47.9143784626       18.2846410590
N                55.4088939192       42.9507682642       19.1813197242
C                54.8317311824       41.7111171474       18.7569026937
C                53.5567164158       41.4472477257       19.5429660190
O                52.4679824363       41.3856907688       18.9953584078
C                55.7610045945       40.5387132253       18.8664034336
C                55.2320852487       39.2497417381       18.2475138363
O                55.0170589093       39.2461122168       17.0236041607
O                55.0246296636       38.2752648610       18.9967082373
H                56.0478089244       42.8413002309       19.8501253601
H                54.6027828014       41.8136390448       17.7592280437
H                56.6625032892       40.7647674784       18.4394796186
H                55.9750300272       40.3725963628       19.8510281139
N                53.6777822074       41.2982585624       20.8473263712
C                52.5803879347       41.0851666953       21.7569012849
C                51.4647842042       42.1318471957       21.5808928757
O                50.2848724595       41.8336966118       21.6448857391
C                53.0403435586       41.0253126943       23.1739766235
H                54.5037934431       41.3347901135       21.2741587790
H                52.1648099159       40.1774877946       21.5049124942
H                52.2675190956       40.8597492780       23.8124550424
H                53.7214269168       40.2836158327       23.3163966005
H                53.4794888701       41.9021522804       23.4410873981
N                51.8554607546       43.3779299042       21.3788904211
C                50.9591782290       44.4691372148       21.1574423734
C                50.2357102632       44.2694566003       19.8273659026
O                49.1988601183       44.8283350915       19.5862212863
C                51.6310739843       45.8502903583       21.1540744821
O                50.6458845283       46.8587454829       21.1526103290
C                52.5349922533       45.9943437274       19.9904221379
H                52.7533945673       43.6233973200       21.3440828174
H                50.2775833279       44.4649612247       21.9285491184
H                52.1990680199       45.9189024831       22.0114575506
H                51.0555245703       47.6634082618       21.1517776938
H                52.9992409158       46.8987995841       19.9892706209
H                53.2528804692       45.2772303845       19.9819285797
H                52.0089267178       45.9153826430       19.1248360476
N                50.8441574046       43.4903230747       18.9321945149
C                50.2968515073       43.1006583167       17.6435923856
C                49.1799549895       42.0637792504       17.6288458631
O                48.1008844220       42.2854931591       17.1287812163
C                51.3332998842       42.5379354953       16.7298578466
C                50.8052326878       41.6998045383       15.6107420044
C                50.5352831031       42.4912472684       14.3871693005
N                49.8733124877       43.7453456491       14.6182630253
C                49.6649159842       44.7236194446       13.7299337288
N                49.0832956022       45.7466923336       14.0905933326
N                50.0682648591       44.5848969358       12.6157785525
H                51.6901790041       43.1307059917       19.0802021328
H                49.8737022008       43.9833580218       17.3319571591
H                51.8975558896       43.2939751305       16.3380337303
H                51.9939486096       41.9975329247       17.2965759375
H                51.4471229769       40.9254448206       15.4047051833
H                49.9465532970       41.2303038594       15.9130329513
H                51.4170014513       42.6751799751       13.9020068185
H                49.9837515742       41.9426933276       13.7192994464
H                49.5546454266       43.8672244639       15.4877017641
H                48.7345666632       45.9243521483       14.9670951965
H                48.9004708738       46.4828458974       13.5137100669
H                50.5330975092       43.8121622999       12.2682738532
H                49.9695981821       45.2262248435       11.9102466867
N                49.4694028695       40.9084047370       18.2064788224
C                48.5371270944       39.8409564228       18.4192080483
C                47.2771446346       40.2845932435       19.1413152996
O                46.1701640292       39.9766677598       18.7260533122
C                49.1491431931       38.6980496135       19.1685137159
C                50.5208294498       38.2672871715       18.8302328357
C                50.9363474157       37.2515112420       19.7934483861
N                49.8983884616       36.2803362075       19.9491235814
C                49.6452795041       35.5151039173       21.0255553364
N                50.3150787061       35.6064960497       21.9712046687
N                48.6787581639       34.7433641627       20.9561135757
H                50.3239916130       40.7173131738       18.5220003564
H                48.2645618448       39.5436271076       17.4743892833
H                49.1337622590       38.9326129427       20.1636150672
H                48.5356231129       37.8835183559       19.0871322174
H                50.5634225191       37.9004670315       17.8757444581
H                51.1586525340       39.0681480493       18.8226506595
H                51.8140762967       36.8035690160       19.5151074867
H                51.1440335961       37.6819480833       20.6986953325
H                49.3427877403       36.1875505213       19.2035064881
H                51.0861033352       36.1944977309       22.0914577018
H                50.2145070737       35.1021714258       22.7884116013
H                48.0849157653       34.6224379537       20.2091485075
H                48.4223379417       34.1617908291       21.6662081744
N                47.4143066400       40.9756699327       20.2482611698
C                46.2920528709       41.4378314137       21.0206919051
C                45.1952876488       42.0369920917       20.1658187425
O                44.0606673076       41.5985106482       20.2211953153
C                46.6508975467       42.3781795658       22.1664089445
C                45.4904290108       43.2311239012       22.5390511978
C                47.1474569799       41.6155793358       23.3430031140
H                48.2408762725       41.2247944598       20.5981263727
H                45.9030933457       40.5812559503       21.4355660577
H                47.4000319415       42.9977291299       21.8311682749
H                45.7310713381       43.8818620911       23.2806250737
H                45.1548073186       43.7749759330       21.7481214923
H                44.7212034763       42.6551280459       22.8671477355
H                47.4118024639       42.2354446333       24.1037681743
H                46.4252497407       40.9907482752       23.6882872800
H                47.9591639671       41.0521975398       23.1074260314
N                45.5170715012       43.0497696059       19.3732445250
C                44.5842584366       43.7092944451       18.4981967774
C                44.4375575174       43.0407338555       17.1296853870
O                43.4043792235       43.1174263944       16.4609763399
C                44.8681548203       45.1859163500       18.3481833854
C                46.1013038436       45.4988788917       17.5304234687
O                47.1698399129       44.9734488656       17.8754035078
O                45.9785388005       46.2661392053       16.5506216449
H                46.3791551123       43.3985094671       19.3211663003
H                43.6733427335       43.5981289506       18.9603145535
H                44.0658947811       45.6641388507       17.9316552433
H                44.9686295012       45.6159347903       19.2704295526
N                45.4770956881       42.3945127328       16.7010582373
C                45.5565599070       41.7713153809       15.4229912578
C                44.3336152005       40.8719846497       15.4421723729
O                43.5554241908       40.7923568391       14.5205040861
C                46.8743203996       41.0634624859       15.2291255365
C                47.3875066907       40.9574762146       13.8118708038
O                48.4905414918       40.3957682402       13.6272844717
O                46.6644532718       41.4074144323       12.9045204354
H                46.2483813195       42.2712068917       17.2112891146
H                45.5057142219       42.4162993791       14.6197992004
H                47.5887505724       41.5261998328       15.7971359234
H                46.8062777098       40.1257043823       15.6264261088
H                47.8673144518       36.4645451320       25.9470979156
H                50.1154454881       35.3300747258       28.3762213192
H                54.7171047584       37.6748559936       28.1376947148
H                53.2301516638       39.2350247627       30.6497942823
H                57.0073225717       36.6417407736       33.7836499518
H                58.1112997797       41.5120893044       34.5937694400
H                62.6471173704       42.6880816395       32.7302319236
H                44.1403061605       40.3079356465       16.2449676999
