 346 
 
N                19.4308642814       25.4829398642       19.5196186652
C                19.4554709308       26.6510508449       20.3461997414
C                18.1282971355       27.3990771291       20.3245694933
O                17.0830503760       26.8296356933       20.1972762396
C                20.5893745585       27.5402033727       20.0062458206
H                19.1833474521       25.6606108274       18.6410015601
H                19.5879780545       26.3094029134       21.3074993581
H                20.6261322763       28.3524005427       20.6148115975
H                21.4785228614       27.0586973295       20.0900670209
H                20.5051357384       27.8724602271       19.0504831468
N                18.2054278932       28.7181854215       20.4349788352
C                17.0930275550       29.6131234060       20.4119465011
C                17.2614186342       30.6346648045       19.3059715979
O                18.2715274511       31.3270472245       19.2674718934
C                16.8991772296       30.2950512339       21.7353941132
C                15.5459475957       30.0698991923       22.3875292761
O                15.1956506349       28.8967376950       22.5844542722
O                14.8568005470       31.0703347605       22.6701289352
H                19.0171602127       29.1596059009       20.5476884097
H                16.2515516238       29.0563086625       20.2304143155
H                17.6305079745       29.9912686980       22.3820348986
H                17.0526914640       31.2969213871       21.6227818412
N                16.2888584799       30.7375829039       18.3919004977
C                16.4263071951       31.6830899123       17.2903011034
C                16.5620899808       33.1239756891       17.7528979387
O                17.4207587387       33.8581793300       17.3329164338
C                15.1996056518       31.4519377347       16.4890492414
C                14.1932684588       31.2175742986       17.5369605779
C                14.8965560424       30.3393260357       18.5077595765
H                17.2966184941       31.5321329640       16.7618567157
H                14.9778341516       32.2388869131       15.8706805014
H                15.2869197011       30.6511509024       15.8522237847
H                13.8874062370       32.0983974116       17.9670227420
H                13.3249611465       30.8084283146       17.1764665862
H                14.5479664302       30.4332078608       19.4697642847
H                14.7640514602       29.3427025539       18.2956852056
N                15.6576468007       33.5050008141       18.6478356932
C                15.5695110591       34.8117849678       19.2274963865
C                16.7297078596       35.1170076254       20.1611322650
O                17.4044341453       36.1215528852       20.0509732665
C                14.2520775341       35.0498568224       19.9638810429
C                14.2369479003       36.4236349627       20.5788472439
C                14.0110767426       33.9700850440       20.9428798517
C                14.3323467246       37.5366338143       19.6345312835
H                15.0113658134       32.9214310174       18.9753146704
H                15.6437859369       35.4646119245       18.4371196860
H                13.4789612398       35.0183026495       19.2886595169
H                13.3899652455       36.5305518351       21.1476522386
H                15.0026037803       36.4808721761       21.2556810645
H                13.1332464666       34.1008972388       21.4378682768
H                13.9773880460       33.0581668013       20.4969335775
H                14.7518111045       33.9472923560       21.6363124351
H                14.3310708168       38.4392445742       20.1053236796
H                15.1905731952       37.4763123923       19.0928628378
H                13.5519608072       37.5271435118       18.9841583946
N                16.9499132228       34.2030949983       21.0938573382
C                17.9685053349       34.2348652490       22.0978613272
C                19.3346722972       34.4797241548       21.4559113759
O                20.0870867014       35.3417869400       21.8881951202
C                17.7491011891       33.1636729951       23.1462914936
C                18.7839093651       33.0389697392       24.1883457008
C                19.1955035896       34.3640572116       24.7844095569
O                18.2965757046       35.0671253672       25.2917412928
O                20.3924999216       34.6934480003       24.7215385868
H                16.4255757215       33.4361236741       21.1451324914
H                17.9368056976       35.0635965988       22.7015700641
H                16.8449795115       33.3261809743       23.6024914863
H                17.6347034248       32.2699163330       22.6710322301
H                18.4689357184       32.4186305908       24.9395123082
H                19.6084221109       32.5766734399       23.7995165102
N                19.6678790553       33.7609730711       20.4121132333
C                20.9203183610       33.9416872276       19.7321306436
C                21.3907622975       35.2055822730       19.0489905281
O                22.4730032569       35.7011120388       19.3215977001
C                21.1157121242       32.8633138546       18.7341725411
C                22.4111089040       32.1461635825       18.9588408914
C                22.6031299556       31.0409508284       17.9919476318
C                23.5452373749       33.1004780331       18.9316493015
H                19.1433262343       33.0759498364       20.0586016044
H                21.5036655710       33.9817139771       20.5765107550
H                20.3217575995       32.2148211425       18.7562924440
H                21.0903589216       33.2526492261       17.7862841460
H                22.3760376359       31.7399474361       19.9032057419
H                23.4743435325       30.5466066003       18.1578627392
H                21.8501934679       30.3617322940       18.0478792974
H                22.6259627002       31.4026301567       17.0431306135
H                24.4288382715       32.6355308826       19.1146406441
H                23.6100304674       33.5454586506       18.0210734243
H                23.4357062257       33.8348259550       19.6253663796
N                20.6158656886       35.7226599428       18.1319209142
C                20.9348075252       36.9219396883       17.4262870606
C                21.0172234955       38.0102265317       18.4829707666
O                21.8064948036       38.9246801162       18.4391424980
C                19.8731445810       37.2695892527       16.4007453439
C                18.8161530666       38.1395518296       17.0042581607
C                19.1904306078       36.0547930807       15.9240181770
C                17.8162190171       38.6631267206       16.0840945133
H                19.7896694227       35.3601319078       17.9047969977
H                21.8262598179       36.8138083293       16.9224796892
H                20.3427558980       37.7594512306       15.6265031319
H                18.3500609334       37.5976159746       17.7397326196
H                19.2587082359       38.9161183731       17.5035774017
H                18.4722155323       36.2757548650       15.2407123111
H                19.8353528754       35.3982690271       15.4972592370
H                18.7330896096       35.5813739571       16.6991093759
H                17.1193043438       39.2294904385       16.5626558041
H                18.2510026069       39.2447427764       15.3737207798
H                17.3271511739       37.9077964735       15.6127012210
N                20.1414613021       37.8745972947       19.4728771264
C                19.9841093367       38.7421473905       20.5846641431
C                21.2712319151       38.8631402631       21.3831470073
O                21.4709802973       39.8070863876       22.1280476654
C                18.7493918269       38.3896456108       21.3621147240
C                18.4575386332       39.2870702600       22.5324376419
O                17.9006513462       40.3646497289       22.3342965235
N                18.8206101859       38.8784134881       23.6273272183
H                19.5550997732       37.1529210765       19.5002455167
H                19.8281408222       39.7091086941       20.2772196653
H                17.9436921060       38.3723267537       20.7291809645
H                18.8350171366       37.4284598441       21.6942243485
H                18.7099985401       39.3613286168       24.4394634782
H                19.2505737188       38.0428697686       23.7868123920
N                22.1580335198       37.9173599480       21.2237021840
C                23.4121577348       37.8623869837       21.9051244151
C                24.4792515909       38.6927884313       21.2118956547
O                25.2185008828       39.4300295891       21.8511677995
C                23.5445969266       36.4610285771       22.4480736412
C                24.7759049827       35.8685293814       23.0594334330
C                24.3962170118       34.9039163348       24.1239466824
C                25.6197548678       35.2236586834       22.0215851899
H                22.0270884731       37.1969797152       20.6455335827
H                23.5295917093       38.3976380929       22.7677748882
H                22.7948361322       36.3502656467       23.1387291276
H                23.2828531366       35.8414972976       21.6834900771
H                25.3279746930       36.6248850673       23.4814148284
H                25.2138893421       34.4985619024       24.5697869205
H                23.8367301701       35.3444531746       24.8498942084
H                23.8476323141       34.1435344234       23.7329328346
H                26.4723188235       34.8400477041       22.4195509003
H                25.1150861232       34.4616699503       21.5781771461
H                25.8860433477       35.8823074628       21.2949634529
N                24.5358682240       38.5946915854       19.9065758049
C                25.4136261923       39.3193879764       19.0313715150
C                25.2706325551       40.8417493050       18.9893782319
O                26.2338384836       41.5805975163       18.9278859786
C                25.2756694972       38.7403559735       17.6600850717
S                25.5006711700       36.9671969543       17.5953069678
H                23.9846173416       38.0042344699       19.4411213434
H                26.3522636589       39.2118332580       19.4360579627
H                24.3502342006       38.9774950744       17.2999708581
H                25.9327204187       39.1894096354       17.0237575519
H                25.3414986644       36.5982705677       16.4093425200
N                24.0335816602       41.2890839407       19.0201889591
C                23.6753492784       42.6655968180       19.0122420299
C                24.1492410753       43.3365666735       20.2763101082
O                24.4617645304       44.4996802842       20.2903061019
C                22.1929812435       42.9265035132       18.8927219323
O                21.6375202999       41.9892238025       18.0037151665
C                21.9181442645       44.3244226293       18.4724745007
H                23.2968455743       40.7210409076       19.0605081013
H                24.1318015170       43.0676479999       18.1848813980
H                21.7864067039       42.7888234142       19.8280141819
H                20.7467956818       42.1307848574       17.9601144419
H                20.9193374710       44.5039654141       18.4179294506
H                22.3187074732       44.9980710553       19.1190149877
H                22.3153752703       44.5011741716       17.5546366886
N                24.1519890899       42.5887268439       21.3733768324
C                24.5771591788       43.0810158758       22.6487135833
C                26.0761287021       42.8737280526       22.8609171720
O                26.7889439365       43.7528199615       23.3104775560
C                23.7918422964       42.4800899686       23.7842129329
C                24.1362327914       41.0333466949       24.0711529550
O                25.2677088374       40.7563828529       24.4441032817
N                23.2465935318       40.2153715043       23.9066089535
H                23.8912301130       41.6954960562       21.3858558927
H                24.4055077632       44.0955498511       22.6361322912
H                23.9263493470       43.0376949353       24.6325262730
H                22.7914190016       42.5513619620       23.5879259452
H                23.3551207435       39.2807672146       24.0411966673
H                22.3636490925       40.4153751542       23.6124765635
N                28.4678821491       42.7396533109       20.7360785097
C                29.3268921941       43.5093636164       19.8804301475
C                30.1549315731       44.6562098645       20.4138631732
O                31.3652425451       44.6531200087       20.2662069772
C                28.5963366812       43.9205245020       18.6379993792
C                29.0767530081       43.2021868417       17.4114908955
C                28.4699046905       43.7210071061       16.1761294571
C                30.5418680400       43.2821979965       17.3564061926
H                27.5778516191       42.7184450225       20.4609049778
H                30.0870497656       42.8371293203       19.7232186579
H                27.5903020658       43.7750876475       18.7693370958
H                28.6862539166       44.9306263911       18.4962849585
H                28.8006661194       42.2158814168       17.4871888166
H                28.7993174433       43.2150503235       15.3591937586
H                27.4572074549       43.6451298491       16.1999402238
H                28.7063014383       44.6999347267       16.0526173926
H                30.9084361666       42.7844515600       16.5522267605
H                30.8326713763       44.2514645548       17.2888711404
H                30.9639646543       42.8859831494       18.1892349557
N                29.3092933924       31.9531829269       24.3232838039
C                29.0038829319       31.8285943914       22.9395994030
C                28.8726238939       30.3950083287       22.5282490202
O                28.3577603960       30.0768700113       21.4801468341
C                29.9720197936       32.5226385146       22.0278861272
C                29.3560044099       33.3522825122       20.9700121346
C                28.5904440088       32.7845868504       19.9835632158
C                29.4519129641       34.7213744482       20.9730064915
C                27.9588558374       33.5461428479       19.0770433401
C                28.8227384188       35.4771001584       20.0651068367
C                28.0740426781       34.8867904846       19.1178080885
H                30.2174590928       31.9251994344       24.5252993163
H                28.0937163742       32.2884561869       22.8176745068
H                30.5941498270       33.1040034529       22.5907558078
H                30.5811104751       31.8236419226       21.6014589932
H                28.5145977459       31.7781792080       19.9634277097
H                30.0142677795       35.1562575048       21.6868626826
H                27.3951660200       33.0975959417       18.3629577651
H                28.9173713662       36.4857697272       20.1042783765
H                27.5957337838       35.4611062071       18.4318173784
N                24.9884020981       28.6627945068       24.6939759295
C                23.6386276685       28.6992208975       24.1914839632
C                23.1825154405       27.4088642416       23.5183424157
O                22.0215102621       27.2429154430       23.1811603427
C                23.4029378520       29.8936833693       23.2551631172
C                22.0081024194       29.9747849949       22.7773528014
C                23.7835298414       31.1562493932       23.9064635339
H                25.5555283734       29.2350678383       24.2292687532
H                23.0497493840       28.8029174443       25.0277929858
H                24.0050149560       29.7430218806       22.4348799840
H                21.8781380686       30.7546295342       22.1395881059
H                21.7314901496       29.1268343053       22.2934292007
H                21.3770977316       30.1071190250       23.5618199052
H                23.6564459604       31.9503573980       23.2843452139
H                23.2085684665       31.3150527114       24.7287573562
H                24.7546352883       31.1497762643       24.2027081443
N                24.0830303716       26.4757210060       23.3145094417
C                23.8271127375       25.2215937403       22.6684731222
C                23.3521459830       24.0946493002       23.5644316305
O                24.1631573500       23.2917533712       23.9890045303
C                25.0422626808       24.7708881310       21.9278482123
C                25.5988896480       25.7481262011       20.9797381279
C                26.8611788904       26.1670874637       20.8520121449
C                24.8791704201       26.4060355184       19.9445796486
N                26.9945040721       26.9977507179       19.8548246863
C                25.8057391086       27.1942450538       19.2437637217
C                23.5721779101       26.4277411179       19.5123024246
C                25.4110284162       27.9513549746       18.1643987628
C                23.2368232710       27.1645915457       18.4695683641
C                24.1399256091       27.9175816456       17.8015067661
H                24.9670953940       26.5725298869       23.5872750315
H                23.0457744700       25.4269090608       22.0374162870
H                25.7610440356       24.5137636013       22.6100637089
H                24.8389966400       23.8975084525       21.4338307659
H                27.6091013588       25.8664404133       21.4611379511
H                27.7898657774       27.4178948574       19.5804776593
H                22.8954425062       25.8697138814       20.0099004862
H                26.0919635438       28.5109998604       17.6762380204
H                22.2736249249       27.1640833077       18.1605065223
H                23.8457064924       28.4693777615       17.0064791663
N                18.2061850498       27.3622493494       16.0333335457
C                19.2672401303       27.3859308114       15.0797473208
C                20.2221980592       26.1920324295       15.0709643615
O                21.3430404294       26.3292699451       15.5290037272
C                20.0624622046       28.6695350762       15.1873397833
C                19.4168118766       29.7780825235       14.4761940450
C                20.2369320730       29.0214669884       16.6009956362
H                18.4258176324       27.7551520942       16.8467269018
H                18.7582591481       27.3279897822       14.1910769989
H                20.9848157017       28.5028959501       14.7639543003
H                19.9609547752       30.6308943115       14.5497550195
H                19.2987621834       29.5694992668       13.4897135346
H                18.4999315451       29.9601412371       14.8709004470
H                20.7840707680       29.8689855881       16.7041919291
H                19.3337228890       29.1835759360       17.0348329149
H                20.7058900824       28.2817353983       17.1125972345
N                28.4671511071       35.4318422871       11.3274011552
C                27.5059302852       34.5497308058       11.9004839183
C                26.2450112927       35.3233837234       12.2425060832
O                25.2115105566       34.7525963366       12.5470694687
C                28.0381964222       33.7169912651       13.0627834777
C                27.2344779769       33.6141260143       14.3311462788
C                27.5961416516       32.4180830112       15.1334199169
C                27.3835370215       34.8593149063       15.1109264763
H                29.1799110985       35.6199965475       11.8961864866
H                27.2476488961       33.8541999239       11.1885935936
H                28.2306666051       32.7687196970       12.7294970896
H                28.9557843618       34.0893322383       13.3160061011
H                26.2469156803       33.5048897441       14.0700005578
H                27.0302364962       32.3508395950       15.9749588057
H                27.4648710331       31.5605845544       14.6049530848
H                28.5697053638       32.4632170227       15.4158472830
H                26.8294990481       34.8353260198       15.9617951435
H                28.3547094953       34.9942258692       15.3759788412
H                27.0934245065       35.6723341839       14.5742760308
N                26.3254970441       36.6454207661       12.2181085630
C                25.2281884222       37.4941519171       12.5758248111
C                24.3929800317       37.7602787327       11.3478534612
O                23.1749333740       37.7524956709       11.3982437165
C                25.5972100297       38.8251947109       13.2345936453
C                24.3729293294       39.6477378657       13.5188521598
C                26.5229401450       39.5848771991       12.4008052282
C                24.6181322244       40.9701978888       14.0679920058
H                27.0902313173       37.1101470477       11.9597917842
H                24.6846077306       36.9708605918       13.2761213193
H                26.0778810536       38.6232282608       14.1208497855
H                23.8408759798       39.7379711319       12.6483702876
H                23.7499332489       39.1315081969       14.1460391890
H                26.7883778271       40.4638633179       12.8347676319
H                27.3739808876       39.0626449709       12.2252448552
H                26.1005817990       39.7987103265       11.5026116211
H                23.7535539820       41.4836176394       14.2232288482
H                25.1034869684       40.9054442889       14.9579597383
H                25.1934398482       41.5209818096       13.4377829028
N                22.1413299988       34.4608473386       10.7500981463
C                20.9673995706       34.2770971139       11.5341372238
C                19.8926476777       35.2481223980       11.0599496585
O                18.7160600397       34.9405355051       11.0323140392
C                21.2794970800       34.4123292199       13.0008675422
C                22.2809158624       33.4280194484       13.5516171209
C                22.8130792588       33.8087879620       14.8950498517
C                21.6509062472       32.0920837584       13.5585907411
H                22.8674639168       34.7688620220       11.2437064422
H                20.6080349844       33.3237045533       11.3908609116
H                21.6021583506       35.3659952215       13.1742064939
H                20.4153807797       34.3301105843       13.5432545530
H                23.1016917849       33.4200390590       12.9330391240
H                23.5009487778       33.1370467959       15.2264305797
H                23.2616253106       34.7210283036       14.8761305032
H                22.0628572169       33.8451176837       15.5768451104
H                22.2888517450       31.3774231156       13.8949057930
H                20.8361583661       32.0920435809       14.1648103193
H                21.3432022793       31.8180322959       12.6290711978
H                20.2501568745       25.1109111524       19.5007962185
H                26.4974664281       41.9970561179       22.6287085595
H                28.7568722673       41.8877741542       20.7641251502
H                29.7099557689       45.4163842093       20.8872884569
H                28.9991400520       32.7405322064       24.6296920569
H                29.2151842519       29.6700066453       23.1257646770
H                24.9935201521       28.9094991493       25.5594877000
H                22.3833219102       24.0175302673       23.7998728564
H                17.4964744181       27.8071984650       15.7041966384
H                19.9235040347       25.3156152396       14.6932411970
H                28.8071070080       35.0616644259       10.5808100111
H                24.8374111385       37.9475252181       10.4718284930
H                22.3793632705       33.6770268871       10.3773171631
H                20.1467047092       36.1676290798       10.7600121867
