 512 
 
N                64.0374118081       50.5883326359       42.3547551995
C                62.9019809001       49.9865371519       41.6993133927
C                61.8050499890       50.9804785730       41.2605005812
O                60.7966963326       50.5319969109       40.7372067589
C                62.1813662940       48.9842198502       42.6010341862
C                63.0514496028       47.9984418633       43.3190379485
C                62.6208328739       47.5307117872       44.5549812919
C                64.2458069501       47.5287809557       42.7971758592
C                63.3658523894       46.6138590392       45.2612377992
C                65.0081373853       46.6143023401       43.4993903379
C                64.5709381423       46.1557873117       44.7357410486
O                65.2863100229       45.2664120508       45.4765016404
H                64.1807570215       50.3882881539       43.3365479400
H                63.2675494395       49.4778614291       40.7920782060
H                61.6226509162       49.5622004364       43.3388242082
H                61.4521299467       48.4565182096       41.9786738635
H                61.6812411558       47.8921320788       44.9507045567
H                64.5896909449       47.8753568164       41.8344895188
H                63.0363416951       46.2397967879       46.2178817926
H                65.9390550887       46.2613402038       43.0762415416
H                66.1259596947       45.0790638068       45.0380583937
N                64.0468674860       52.2951361847       37.7279256446
C                63.9361871117       51.2879700967       36.6892593708
C                62.5961053519       51.3386978406       35.9466831943
O                62.6116913936       51.2990043722       34.7171612883
C                64.2377375958       49.8864005179       37.2486306652
C                65.6888918997       49.8241739185       37.7427995154
C                64.0077910267       48.8324176122       36.1708177716
C                65.9744292520       48.5842925982       38.5806473483
H                64.3284657163       51.9879118568       38.6532167156
H                64.6756510352       51.5018892597       35.9012780654
H                63.5547482503       49.7119557919       38.0872369469
H                66.3554082696       49.8380453993       36.8793107300
H                65.9032817211       50.6997493521       38.3545525397
H                64.2414965603       47.8423021129       36.5479100704
H                62.9770852530       48.8408157733       35.8315140489
H                64.6452610982       49.0250474283       35.3109133236
H                66.9813372250       48.6432923207       38.9849139504
H                65.2672827078       48.5279518608       39.4051262281
H                65.8959398118       47.6739653699       37.9939013535
N                62.6344053791       52.1762585891       31.9990678275
C                62.0880068224       51.2305827186       31.0579900526
C                60.7701938834       51.7266564739       30.4724860079
O                60.4586158079       51.4239090179       29.3280738405
C                61.8665480250       49.8620683275       31.6939597404
C                63.1318207883       49.2256949378       32.2762156688
C                62.7192219127       47.9645479217       33.0275717032
C                64.1569785859       48.9011412916       31.1968595824
H                62.5789971369       51.9691947210       32.9914526548
H                62.7624149560       51.1456058884       30.1946247817
H                61.1366896540       49.9798509648       32.4958150443
H                61.4466292930       49.2044201090       30.9296221450
H                63.5768017790       49.9254260766       32.9871674168
H                63.5859610329       47.4010845783       33.3606530057
H                62.1129207350       48.2287263632       33.8883181083
H                62.1268935566       47.3282440722       32.3801692105
H                64.9970082259       48.3662018336       31.6316746911
H                63.7103533606       48.2777747482       30.4256973484
H                64.5400260199       49.8076614191       30.7343980101
N                60.1781843096       31.9366939039       35.5403173855
C                61.4102273438       32.2369606163       34.8528736684
C                61.6584180751       31.3004073374       33.6683007323
O                62.1257661338       31.7470571131       32.6209965968
C                62.5921046343       32.2176597891       35.8034327499
S                64.0296013131       32.9325878585       34.9110452121
H                60.2508393260       31.4742046281       36.4308432949
H                61.3293268021       33.2428786188       34.4262112205
H                62.3805463516       32.8458828112       36.6677131760
H                62.8469551613       31.2036239762       36.1083935659
H                64.7490998601       33.0155221081       36.0224904644
N                57.1577037262       41.1973832028       40.8153543297
C                57.9922162768       42.1622212933       41.4878473453
C                57.2453186338       42.9617361175       42.5740850596
O                57.8666008662       43.7644673084       43.2478034993
C                58.6338721238       43.1583173597       40.4973708713
O                57.8441362767       44.2853646744       40.2492821970
H                56.9838766279       41.3559744758       39.8248176332
H                58.8003306960       41.6166248893       41.9968973517
H                59.5653523643       43.5351681040       40.9292057590
H                58.8493064024       42.6338474777       39.5538766920
H                56.9243951547       43.9877058611       40.0854129000
N                57.4849529064       39.7020103511       45.5089932833
C                58.8098060824       39.6399758459       46.0757250635
C                59.1104346736       40.7264045197       47.1186836617
O                59.8225486171       40.4067541310       48.0710881165
C                59.8550734519       39.6461037444       44.9607604243
C                59.6657614618       38.5011580702       43.9522708780
C                60.6940767094       38.6321893804       42.8324728046
C                59.7921492175       37.1302128649       44.6071174128
H                57.4018285134       39.8455533490       44.5087882034
H                58.8977598696       38.7081873541       46.6513671164
H                59.7940959125       40.6050083701       44.4408621786
H                60.8354741099       39.5590954279       45.4298694944
H                58.6683827247       38.5831620254       43.5120346824
H                60.5722931678       37.8189151816       42.1214844069
H                60.5659949201       39.5755845475       42.3081313695
H                61.6993548556       38.5894771473       43.2422112303
H                59.7029492701       36.3532416344       43.8527349902
H                60.7544976227       37.0232780505       45.1012085949
H                59.0030946176       36.9772017819       45.3367118334
N                65.5003348767       40.1372851793       54.7630405746
C                65.9111927635       40.6433275984       53.4688901572
C                67.4277135896       40.8834241783       53.4312690544
O                67.9703682362       41.6777870513       54.1819366947
C                65.2398856533       41.9781754247       53.1138312342
C                65.5203660214       42.3444615161       51.6532471667
C                64.9167899380       41.2956181674       50.7167572175
C                64.9931874747       43.7382016851       51.3278093190
H                65.6036194182       40.7578057106       55.5510567488
H                65.6063153210       39.8698573750       52.7605488305
H                64.1631829634       41.8963576314       53.2861156226
H                65.6408589987       42.7505661727       53.7746966451
H                66.6088254392       42.3588693096       51.5189103267
H                64.5944727603       41.7584707973       49.7897662233
H                65.6438927567       40.5188357330       50.4992756912
H                64.0527629892       40.8245345624       51.1746102836
H                65.1709974366       43.9695435248       50.2808363647
H                63.9244716053       43.7983141250       51.5174508293
H                65.4955539210       44.4816088725       51.9402595175
N                68.0830102053       40.2185775403       52.4613387730
C                69.5099639682       40.3418991550       52.2192408428
C                69.7052564567       40.4242872570       50.6953555576
O                69.3592658119       39.5418344184       49.9286785511
C                70.2866705920       39.1706186243       52.8607398199
C                70.2122929687       39.3079346619       54.3865542994
C                71.7331910275       39.1593987689       52.3769874258
C                70.6121874986       38.0439517131       55.1360392548
H                67.6026414611       39.4960040359       51.9471107610
H                69.8230453550       41.2726726221       52.7039918960
H                69.7941305179       38.2405949677       52.5591466577
H                70.8502986977       40.1369739216       54.7001390259
H                69.1917933889       39.5612729594       54.6752352994
H                72.2719052316       38.3673023276       52.8861584605
H                71.7649719950       38.9730522489       51.3070804436
H                72.2128997056       40.1090872924       52.6014616187
H                70.5119674342       38.2063052291       56.2068065857
H                69.9620005172       37.2188325679       54.8558460913
H                71.6418660361       37.7655971844       54.9338536854
N                70.3260279877       41.5505108453       50.2792613831
C                70.3209698870       42.0038893974       48.8984183411
C                70.8483012656       41.0258183312       47.8597360550
O                70.4959012930       41.1118175096       46.6860713378
H                70.4447728283       42.2917205976       50.9547558401
H                69.3125745543       42.3070751740       48.5976609262
H                70.9688429140       42.8829542087       48.8334077587
N                71.7576425084       40.1367671614       48.2574178819
C                72.5598357003       39.4021522717       47.2904062927
C                71.6843795862       38.7564609782       46.2108329676
O                71.8695155936       38.9519903669       45.0200982650
C                73.4320239250       38.3673521191       48.0060629578
C                74.4995333585       39.0523104781       48.8634448220
C                75.5458718597       38.0716036095       49.3956810786
C                76.5184932903       38.8173257509       50.3067023854
N                77.5454993196       37.8970583777       50.8667330656
H                72.0157856132       40.0766448307       49.2315977534
H                73.1910086377       40.1233263802       46.7501612863
H                72.8020921964       37.7218198420       48.6203496149
H                73.9097338559       37.7457710645       47.2484670233
H                74.9955579878       39.8086090399       48.2548994518
H                74.0272101070       39.5535603605       49.7091599552
H                75.0446725494       37.2739693457       49.9446676706
H                76.0750328437       37.6284422620       48.5520212184
H                77.0231913923       39.6052244143       49.7459908366
H                75.9722882685       39.2689654416       51.1353787613
H                78.1770973892       38.3997473663       51.5078008588
H                77.0865749820       37.1343338510       51.3868988119
H                78.1098365749       37.4884432706       50.1074411375
N                70.7264079579       37.9233830243       46.6571608519
C                69.9344146209       37.1662961514       45.7100586216
C                68.8756175565       38.0220222206       45.0102475618
O                68.3492085672       37.6496521443       43.9674757262
C                69.3295640013       35.9256911523       46.3720145275
C                70.3616019281       34.9964427322       46.9714274191
C                69.9599680919       34.0726725011       47.9344527028
C                71.6964197209       35.0146812638       46.5895843044
C                70.8584381925       33.1817792132       48.4831614868
C                72.6084733603       34.1247769502       47.1292279184
C                72.1906415746       33.1965184737       48.0738716289
O                73.0343036406       32.2966189816       48.6365803765
H                70.5525193256       37.7870510185       47.6422567210
H                70.5985576602       36.8544255800       44.8927017608
H                68.6243462077       36.2300471031       47.1490724861
H                68.7552518650       35.3863717952       45.6124647078
H                68.9297002700       34.0505899513       48.2596142090
H                72.0507070447       35.7299096051       45.8666672968
H                70.5560119220       32.4640455343       49.2313140884
H                73.6440634227       34.1459745018       46.8145188001
H                73.9397280211       32.4158101288       48.3103064431
N                68.5886732374       39.1904527693       45.5939587202
C                67.6876332173       40.1393024603       44.9782939685
C                68.2562436786       40.6259660028       43.6532746396
O                67.5857775892       40.6254597928       42.6258485203
C                67.4633482264       41.3575804340       45.8758945182
C                66.9818192307       41.0347538896       47.2950327951
C                66.7803903759       42.3548250890       48.0417817376
C                65.6973699988       40.2157864965       47.2712448956
H                69.1645288025       39.5439494595       46.3465382645
H                66.7453145198       39.6284786980       44.7486614679
H                68.4082701585       41.8987980072       45.9488579571
H                66.7254622749       42.0016229554       45.3951560235
H                67.7521512107       40.4523261455       47.8119307230
H                66.8633980291       42.2155928188       49.1151586595
H                67.5158236231       43.0873836646       47.7192235319
H                65.7978567961       42.7648056166       47.8242613800
H                65.3545015097       40.0188219018       48.2809501526
H                64.9029531386       40.7474755875       46.7514247120
H                65.8707671907       39.2663010313       46.7739616183
N                69.5146256944       41.0781516500       43.6819987379
C                70.0663644485       41.6562269685       42.4723037096
C                69.9777594902       40.6361065278       41.3477345116
O                69.7342112226       40.9627881027       40.1869826090
C                71.5172325328       42.1112217142       42.6349974072
C                72.0077340968       42.8690571906       41.4028134115
S                71.4560989626       44.6170961171       41.3496419660
C                69.8552070323       44.5231374719       40.4853371128
H                70.0540017568       41.0891848295       44.5391983145
H                69.4472327226       42.5132816494       42.1803230010
H                71.5901153076       42.7706435267       43.5011543015
H                72.1475766870       41.2348936225       42.8002105428
H                73.0945207162       42.9341261856       41.4090003280
H                71.6867773485       42.3963001946       40.4758950192
H                69.7267968897       45.4604024983       39.9536158646
H                69.8740590832       43.6912371305       39.7882648651
H                69.0466696398       44.4159157979       41.2024518422
N                70.2181138149       39.3750802979       41.6860836995
C                70.1886087267       38.3273355754       40.6844839289
C                68.8135354870       38.2842228032       40.0120895056
O                68.7011044337       38.3871731039       38.7942903067
C                70.5993812852       37.0158200868       41.3432464701
C                71.9817362850       37.0942833261       41.9434475138
C                72.2978667287       36.2911086465       43.0329526550
C                72.9672047176       37.9251168027       41.4214554103
C                73.5490072924       36.3573467546       43.6196059673
C                74.2180464306       37.9914616539       42.0074843488
C                74.5061874505       37.2216179783       43.1197794748
H                70.5274350846       39.1314573327       42.6172661784
H                70.8869399434       38.5806366682       39.8755490701
H                69.8725322656       36.7541399484       42.1173719930
H                70.5834740800       36.2256934909       40.5905982493
H                71.5657066777       35.5837752621       43.3968951992
H                72.7814958170       38.5190555032       40.5394581371
H                73.7853909804       35.7133199555       44.4532976895
H                74.9684198061       38.6415797724       41.5804987991
H                75.4849676833       37.2709311769       43.5684564838
N                67.7570630472       38.1458602592       40.8128041940
C                66.4316190544       38.0595354069       40.2257043876
C                66.1550237828       39.3303542463       39.4166566767
O                65.7106413041       39.2835208564       38.2761118677
C                65.3653250712       37.8011664961       41.3043202518
C                65.6587056801       36.4587891203       41.9889401012
C                63.9724104385       37.8051700082       40.6792356222
C                64.8041555338       36.1968814362       43.2234091936
H                67.8515808915       38.1036896146       41.8204204205
H                66.4219691134       37.2362795682       39.4959794475
H                65.4360640103       38.6066815942       42.0428323634
H                65.5070366947       35.6566452093       41.2648054032
H                66.7020583943       36.4430589194       42.3038967345
H                63.2125767989       37.6487815753       41.4380329896
H                63.7657332818       38.7491451648       40.1835412438
H                63.8928922263       37.0112170773       39.9412571615
H                65.1106963106       35.2606412360       43.6828895025
H                64.9414970746       36.9939190026       43.9495544409
H                63.7493459947       36.1206454679       42.9780035119
N                66.4217355252       40.4773607437       40.0460131641
C                66.1275892319       41.7690669105       39.4627403555
C                66.8647722372       41.9766953993       38.1433109904
O                66.2994333436       42.5062816547       37.1870419177
C                66.4956897841       42.8875192477       40.4408391421
C                65.6790788230       42.8720684844       41.7286011698
S                63.8974501613       43.1886782217       41.4717834107
C                63.2548050748       41.4980687987       41.2685270912
H                66.8364702035       40.4795132889       40.9710478457
H                65.0592039894       41.8246467368       39.2145083400
H                67.5503864642       42.7811285239       40.6991208026
H                66.3531720906       43.8489254691       39.9447209233
H                65.7871229436       41.9357815614       42.2722720717
H                66.0101629894       43.6910151662       42.3660273645
H                62.1915848166       41.5528174912       41.4750509434
H                63.4061264965       41.1569265291       40.2493331222
H                63.7425495356       40.8351421902       41.9749256339
N                68.1347328921       41.5876021097       38.0994655691
C                68.9197390303       41.7416952009       36.8942025623
C                68.4278604984       40.8118626636       35.7909277843
O                68.3793347616       41.2244339445       34.6333372950
C                70.4176972373       41.4847526623       37.1335533392
O                70.7107895476       40.1759196881       37.5193948799
H                68.5976944352       41.2330085866       38.9328508375
H                68.8058664496       42.7656872221       36.5099248231
H                70.9468013751       41.6527522207       36.1908719071
H                70.7787765989       42.2060370025       37.8783585483
H                70.2371046197       39.9809128901       38.3443729821
N                68.0807407123       39.5745711147       36.1353169792
C                67.5758604373       38.6947440846       35.0992467092
C                66.2702288401       39.2690958464       34.5602698747
O                66.0418765229       39.3029557024       33.3567462249
C                67.2951741492       37.2737720759       35.5760656249
C                68.5274331750       36.4217178680       35.8964599977
C                68.0437929704       35.0187181342       36.2593925408
C                69.5031896489       36.3360482317       34.7272414026
H                68.2126591360       39.2091029948       37.0720036486
H                68.2778896784       38.6941214711       34.2566321685
H                66.6621578841       37.3361228031       36.4631065583
H                66.7286530144       36.7748438736       34.7850040908
H                69.0397462819       36.8689174543       36.7539130665
H                68.8828470533       34.3610298836       36.4611092559
H                67.4105928727       35.0538472930       37.1412695166
H                67.4784006606       34.5936846628       35.4333516319
H                70.3282284403       35.6759208642       34.9832047170
H                69.0124585133       35.9302855030       33.8454219342
H                69.9141654562       37.3111361808       34.4806673173
N                65.4066572762       39.6894837501       35.4824985649
C                64.1257270597       40.2526221467       35.1019819892
C                64.4152668810       41.4163356403       34.1537410723
O                63.9234864745       41.4670949605       33.0345716591
C                63.3201064704       40.6330737310       36.3539173989
C                62.1045464912       41.4720339769       35.9828890824
C                62.8651779194       39.3695265134       37.0840239586
H                65.6130430189       39.6389408987       36.4750370245
H                63.5592428898       39.5155948922       34.5161984401
H                63.9716206380       41.2244919533       37.0051102386
H                61.5439116112       41.7395592652       36.8744518630
H                62.3935758577       42.3814961881       35.4702312248
H                61.4499639750       40.9092723584       35.3230277871
H                62.2804985576       39.6355691402       37.9617688998
H                62.2363086278       38.7678584870       36.4328109588
H                63.7100556174       38.7676645286       37.4015584402
N                65.2693564081       42.3340028124       34.6149061315
C                65.6337839624       43.4830790580       33.8173484133
C                66.1607574252       43.0596940273       32.4530775680
O                65.8637834236       43.7063360663       31.4550177977
C                66.6938667901       44.3621133718       34.5272444705
O                66.2199920608       44.8744610882       35.7445526630
C                67.0588864946       45.5546803855       33.6518219821
H                65.7081197836       42.2198076829       35.5219867428
H                64.7419120599       44.1006992435       33.6306514573
H                67.5795030951       43.7284430636       34.6921497099
H                66.1511058981       44.1528368668       36.3892323528
H                67.7721257517       46.1859146789       34.1724150306
H                67.4837348754       45.2217453358       32.7121490336
H                66.1597953790       46.1326467980       33.4559023781
N                66.9865406788       42.0169590264       32.4175316492
C                67.6045808339       41.6144460030       31.1753201849
C                66.5817465037       41.0202779694       30.2187432404
O                66.5845940246       41.2981691529       29.0230141190
H                67.3361100514       41.6012903223       33.2734628416
H                68.0559103591       42.4773035141       30.6724291119
H                68.3705729889       40.8680963908       31.3799943275
N                65.7123140217       40.1761774302       30.7659622862
C                64.6044043065       39.6750889816       29.9818669207
C                63.8542098798       40.8910884478       29.4443117788
O                63.6206934862       40.9845524531       28.2392670695
C                63.6998636049       38.7231961324       30.7776348016
C                62.4633410860       38.3662514791       29.9560363243
C                64.4526294065       37.4465887203       31.1449233902
H                65.7337224163       39.9822418953       31.7621533862
H                64.9962252232       39.1458702802       29.1017144308
H                63.3960034043       39.2404363964       31.6922838515
H                61.8223503478       37.6923571912       30.5172474142
H                61.8888727755       39.2508663285       29.6965006824
H                62.7518205570       37.8689094259       29.0327483269
H                63.7976589693       36.7894258554       31.7114507764
H                64.7678361126       36.9186367794       30.2483328511
H                65.3241549641       37.6797884976       31.7473300564
N                63.5085459567       41.8183779039       30.3288860617
C                62.7169552696       42.9736976138       29.9598072157
C                63.4095021940       43.7521952148       28.8408415098
O                62.8242424509       44.0498296102       27.8014184889
C                62.4906607471       43.9147582502       31.1558646726
C                61.5929970782       43.2878897597       32.2305807638
C                61.8562226996       45.1987800595       30.6246468549
C                61.6562787376       44.0539882684       33.5482230922
H                63.7429710003       41.7206883134       31.3130245213
H                61.7492409790       42.6362683159       29.5594285946
H                63.4748509631       44.1293269737       31.5839336305
H                60.5678776377       43.2713488119       31.8593823007
H                61.8980205264       42.2604751840       32.4265256211
H                61.4900289003       45.8244912443       31.4301902112
H                62.5661853432       45.7693487469       30.0315322636
H                61.0044737950       44.9475780715       29.9980748147
H                60.9127223202       43.6731691570       34.2429729849
H                62.6388874601       43.9305996853       33.9978035833
H                61.4793762030       45.1147016406       33.4079188246
N                64.6589666316       44.1170629105       29.1050002509
C                65.4141067327       44.9072172867       28.1569010678
C                65.4119031245       44.1394626849       26.8501397692
O                65.0380782472       44.6536472124       25.7993267782
C                66.8525975729       45.1826109738       28.6123447279
C                67.6528126774       45.7545242527       27.4443128354
C                66.8776337573       46.1474330763       29.7906643712
H                65.1038563726       43.8587750007       29.9801578837
H                64.8835478232       45.8521789564       27.9728422004
H                67.2955890241       44.2277557887       28.9134745504
H                68.6627090913       46.0014119312       27.7582717888
H                67.7119636019       45.0359717755       26.6314572796
H                67.1777446189       46.6585681425       27.0706110238
H                67.9046668570       46.2985526599       30.1118557122
H                66.4600967172       47.1073953884       29.5007236499
H                66.3019432567       45.7441232279       30.6158192043
N                74.7536593701       33.7146767102       30.7419763472
C                74.3383685214       34.4137434254       31.9387550197
C                73.5999219508       33.4769909370       32.8878711371
O                73.7584142979       33.5555006605       34.1028124305
C                73.4449733955       35.6138099296       31.6332020658
C                74.1100362599       36.6824890889       30.7588494990
C                73.1239765240       37.8255635806       30.5354189127
C                75.3944403674       37.2234773219       31.3753147809
H                74.2931186262       33.9639450184       29.8721625113
H                75.2369828762       34.7462097768       32.4733738558
H                72.5467074962       35.2523006096       31.1295628183
H                73.1502272739       36.0538324314       32.5888405085
H                74.3457516985       36.2283425948       29.7931925481
H                73.5540143144       38.5729349962       29.8744891036
H                72.2041916709       37.4514127497       30.0944540906
H                72.8849786680       38.3068012712       31.4807831509
H                75.7908970999       38.0194749693       30.7519422521
H                75.2082217200       37.6260658780       32.3681893734
H                76.1500812238       36.4470052199       31.4505409987
N                74.9549160519       32.9060658406       36.4463732784
C                74.0868415796       32.9498767578       37.6092339007
C                74.1664209996       31.5999986733       38.3207751580
O                74.4174692713       31.5163275651       39.5202950212
C                72.6674526326       33.3114375680       37.1761250363
C                71.6786073730       33.5628674592       38.2883133130
C                70.7743354106       34.6103025873       38.1519539310
C                71.5811989751       32.7583932473       39.4188684246
C                69.7673431211       34.8055474650       39.0798912422
C                70.6022947776       32.9795552264       40.3737221987
C                69.6745050809       33.9877225204       40.1933751301
H                74.5226424369       32.8837544056       35.5255202580
H                74.4601534403       33.7046935872       38.3128892967
H                72.7440135320       34.2104062141       36.5599644563
H                72.3003548424       32.4983829087       36.5428075560
H                70.8499534775       35.2871282220       37.3146273948
H                72.2832773803       31.9596848775       39.5690404105
H                69.0629153526       35.6091972171       38.9303202572
H                70.5526301791       32.3624996522       41.2592996168
H                68.9062497753       34.1585911884       40.9306883028
N                76.8860122049       31.9397226815       40.0925142892
C                76.7395887109       32.8321191334       41.2232291401
C                76.2565516990       32.0616908914       42.4578358253
O                76.7632717831       32.2485688350       43.5566591029
C                75.8432643946       34.0314445964       40.8400729639
C                74.4842641467       34.0221802735       41.5295032041
C                76.5683031368       35.3485140515       41.0885219831
H                76.6161250067       32.3089004944       39.1819309969
H                77.7392614522       33.1809413052       41.5094300422
H                75.6737999256       33.9662218777       39.7640776584
H                73.9277394981       34.9103817911       41.2446768021
H                73.9011874392       33.1547706158       41.2406065263
H                74.6055260903       34.0223829860       42.6087505921
H                75.9202771471       36.1775313240       40.8169040251
H                76.8242487001       35.4440444235       42.1387625920
H                77.4681198190       35.3958903927       40.4810184101
N                75.2406209962       31.2132084365       42.2585458457
C                74.6653737297       30.4428981594       43.3379391998
C                75.5578583688       29.2449396783       43.6913654504
O                75.6599744897       28.8609432387       44.8526311946
C                73.2034699939       30.0547818402       43.0177379276
C                72.8335490113       28.6084937484       43.3296166818
S                73.4601157662       27.4632608750       42.0385512605
C                72.4090110066       26.0197064303       42.3719058799
H                74.8709518515       31.0834886696       41.3254562961
H                74.6838993388       31.0723100524       44.2386098363
H                72.5414040053       30.7019584443       43.5954459361
H                73.0168845147       30.2450735356       41.9581388094
H                73.2333526341       28.3009770239       44.2968469761
H                71.7507337571       28.4829701608       43.3387750852
H                72.7547563624       25.2366679513       41.7046066571
H                72.5320769710       25.7105386084       43.4056482995
H                71.3722200801       26.2640314145       42.1590368307
N                78.3798020972       30.1924015895       45.4563079547
C                77.9510731611       30.5525014866       46.7879737623
C                77.6400283217       29.2994789112       47.6199230603
O                77.5615600655       29.3471308829       48.8337960295
C                76.7156790914       31.4686094159       46.7694854158
C                76.5689603499       32.1784296117       48.0862023245
C                75.8201338908       31.6315270004       49.1227172830
C                77.2247343413       33.3879610656       48.2924070602
C                75.7088172265       32.2948546036       50.3346776445
C                77.1100214479       34.0504894724       49.5013772926
C                76.3448648455       33.5095285336       50.5221528689
H                77.7419453516       30.4001420190       44.7020787931
H                78.7920349493       31.0742194897       47.2666248711
H                76.8502978992       32.1957840435       45.9652911365
H                75.8418322945       30.8511333555       46.5445002582
H                75.3303274264       30.6775933751       48.9891007897
H                77.8325109610       33.7957844073       47.4973798509
H                75.1163383819       31.8555215792       51.1234498508
H                77.6368960948       34.9801424474       49.6427553675
H                76.2459620893       34.0106172965       51.4715004680
H                64.7949983093       50.3209368883       41.9490925228
H                61.9314184605       51.9615103720       41.4074958829
H                64.6583889826       52.9097484600       37.4864857757
H                61.7412316654       51.4022814223       36.4616085367
H                63.5134649652       52.2850264132       31.8396193888
H                60.1620894976       52.2983574397       31.0232736817
H                59.7303510110       32.7004994329       35.7017065128
H                61.4409398006       30.3274428054       33.7460388806
H                57.5365096279       40.3827997430       40.8697590710
H                56.2661200692       42.8174029784       42.7166968263
H                57.0524214903       38.9295656324       45.6709986247
H                58.7325433852       41.6454342943       47.0065121521
H                64.6268090604       39.9220579831       54.7379427196
H                65.7203564709       43.1884707612       26.8284396729
H                75.6301041485       33.8600019657       30.5980141281
H                72.9757485550       32.7859919009       32.5232783452
H                75.4826459275       33.6350565256       36.4377849379
H                74.0122802208       30.7550065624       37.8086922029
H                77.7486151751       31.6959629852       40.0119082953
H                76.0635663154       28.7687454994       42.9719917111
H                79.1418701514       30.6281694821       45.2579178730
H                77.4970580517       28.4203017627       47.1653825853
