 434 
 
N                67.8572797340       55.1310241836       51.9750198618
C                66.9051653236       53.9804702897       52.0764652341
C                66.5067158541       53.5605973643       50.6419653817
O                65.3840203317       53.6719069632       50.2018532561
C                65.6985998684       54.5439603673       52.8271868336
C                65.8036301017       56.0773038377       52.7325626582
C                67.0259457443       56.3632206969       51.8631347149
H                68.4149356640       55.1949982800       52.8375286456
H                68.4881981106       55.0380188174       51.1662178010
H                67.3763835731       53.1410604603       52.5953374552
H                64.7872208218       54.1955721734       52.3435376045
H                65.6958321253       54.2109816927       53.8607098945
H                64.9119736167       56.4958010172       52.2734225971
H                65.9206651244       56.5084253331       53.7225562588
H                66.7232893625       56.5126484813       50.8276314325
H                67.5987827498       57.2287153004       52.1950033792
N                67.5544108676       53.1364984021       49.9073258799
C                67.5383000508       53.1470315782       48.4586446790
C                66.7570142372       51.9990677926       47.7927819235
O                66.7744586862       51.8652511625       46.5772271559
C                68.9794687426       53.1532092514       47.9149574721
C                69.9541136366       54.1406332427       48.5815826345
C                71.3364597465       53.9867665876       47.9440178381
C                69.5141986298       55.5996187137       48.4693469194
H                68.4249627643       52.8603681253       50.3415453030
H                67.0332099751       54.0714482548       48.1443574434
H                69.3912443432       52.1462716714       48.0094156172
H                68.9196833625       53.3837011248       46.8523581692
H                70.0772398507       53.8772551881       49.6376867613
H                72.0382127596       54.6822195537       48.3986928694
H                71.7138157430       52.9764256389       48.0793962586
H                71.3112931217       54.1975467197       46.8772236498
H                70.1313788714       56.2294115996       49.1048148840
H                69.6590385215       55.9417975353       47.4492963431
H                68.4695516255       55.7451965514       48.7318864072
N                66.0463742071       51.1845669485       48.5815899346
C                65.4481702116       49.9612465675       48.0621983536
C                64.4636266166       50.2871189836       46.9296527651
O                64.5722643378       49.8503462899       45.7976829614
C                64.7689898340       49.2103934445       49.2078268015
C                65.6992493357       48.7913838476       50.3288254218
C                65.1294814578       48.3254279358       51.5123690962
C                67.0858610678       48.8366888131       50.2355720242
C                65.9209911811       47.9171290258       52.5704896961
C                67.8798510916       48.4323425870       51.2982078130
C                67.3018100783       47.9753984450       52.4689731254
H                65.9844594178       51.3293935417       49.5783925721
H                66.2248773791       49.3390797406       47.5995970680
H                63.9746445191       49.8318989883       49.6329544559
H                64.2886899130       48.3206946419       48.7921439262
H                64.0547383301       48.2706887226       51.6049628830
H                67.5723014374       49.1726008531       49.3330911634
H                65.4577213591       47.5492723067       53.4747959131
H                68.9562003998       48.4653852385       51.2059415031
H                67.9201538441       47.6604438546       53.2961195885
N                63.4801072840       51.1357866919       47.2898740125
C                62.3840887171       51.4122504432       46.3832138294
C                62.8227493234       52.3885633572       45.3083431042
O                62.3472940107       52.3588361471       44.1769884274
C                61.1656915614       51.9696719753       47.1303808245
C                60.7354388130       51.0847031932       48.2756026768
C                60.1278394152       51.6577163748       49.3870006419
C                60.9454716896       49.7098812238       48.2686151150
C                59.7851567540       50.8934120523       50.4851609593
C                60.6175102626       48.9352879478       49.3636661055
C                60.0634319717       49.5309290770       50.4945465908
O                59.8432562664       48.7589057461       51.5869373584
H                63.3513872494       51.3841046637       48.2600070467
H                62.1172448932       50.4859820186       45.8579389903
H                61.3894911395       52.9670876734       47.5174734771
H                60.3490286861       52.0857554088       46.4119974707
H                59.9282225014       52.7185486828       49.4016469399
H                61.3866988773       49.2299826154       47.4082772805
H                59.3197825031       51.3580631364       51.3434973282
H                60.8002766968       47.8712136535       49.3596841997
H                59.4631802127       49.2795701742       52.3078632650
N                63.7405523975       53.2880928116       45.6688835555
C                64.1267693895       54.2920217643       44.6971048897
C                64.6165336957       53.5547881281       43.4533480395
O                64.2619890974       53.8855668492       42.3271179891
C                65.1499668256       55.3330788144       45.2056289182
C                66.5864978001       54.8081105552       45.1163280237
C                64.7863685280       55.8032110225       46.6133310811
C                67.6428693651       55.8313643396       45.5093918708
H                64.1308531994       53.2798980008       46.5985088203
H                63.2123210397       54.8233833658       44.3931812812
H                65.0570143089       56.1861056834       44.5248595583
H                66.6875049269       53.9173113830       45.7365429406
H                66.7766051056       54.5254005980       44.0814185220
H                65.3785721983       56.6740444241       46.8768807132
H                63.7385106966       56.0874690480       46.6507729380
H                64.9728638942       55.0245619752       47.3495796639
H                68.6317742253       55.4067141117       45.3517965728
H                67.5572959382       56.7187865267       44.8889067776
H                67.5492512915       56.1228363323       46.5483126814
N                65.4495258210       52.5295253985       43.6599237100
C                66.0728775153       51.8628587383       42.5301382475
C                64.9525136543       51.2792243461       41.6649572755
O                64.8608359600       51.4784452680       40.4588237988
C                67.1074107847       50.8417641380       43.0348790933
C                67.6351172777       50.0063870356       41.8755049248
C                68.2713269066       51.5744775852       43.7013669764
H                65.7135637663       52.2292299277       44.5894769238
H                66.5782859615       52.6165080547       41.9062757613
H                66.6190237548       50.1879710054       43.7659453208
H                68.3820609129       49.2992829867       42.2264266737
H                66.8295241940       49.4593549657       41.3953792027
H                68.1032313366       50.6553088348       41.1393682930
H                69.0333883982       50.8641447325       44.0096815306
H                68.7241736222       52.2656533488       42.9945588888
H                67.9407871015       52.1154563736       44.5802315350
N                64.0374118081       50.5883326359       42.3547551995
C                62.9019809001       49.9865371519       41.6993133927
C                61.8050499890       50.9804785730       41.2605005812
O                60.7966963326       50.5319969109       40.7372067589
C                62.1813662940       48.9842198502       42.6010341862
C                63.0514496028       47.9984418633       43.3190379485
C                62.6208328739       47.5307117872       44.5549812919
C                64.2458069501       47.5287809557       42.7971758592
C                63.3658523894       46.6138590392       45.2612377992
C                65.0081373853       46.6143023401       43.4993903379
C                64.5709381423       46.1557873117       44.7357410486
O                65.2863100229       45.2664120508       45.4765016404
H                64.1807570215       50.3882881539       43.3365479400
H                63.2675494395       49.4778614291       40.7920782060
H                61.6226509162       49.5622004364       43.3388242082
H                61.4521299467       48.4565182096       41.9786738635
H                61.6812411558       47.8921320788       44.9507045567
H                64.5896909449       47.8753568164       41.8344895188
H                63.0363416951       46.2397967879       46.2178817926
H                65.9390550887       46.2613402038       43.0762415416
H                66.1259596947       45.0790638068       45.0380583937
N                62.0159429796       52.2903822121       41.4642067914
C                61.1261764562       53.3355538621       40.9883662458
C                61.7576736806       54.1373054766       39.8506917179
O                61.0794935479       54.8106240839       39.0783177261
C                60.6999967127       54.3281007290       42.1045406485
O                60.0911276062       53.6492158777       43.1714364311
C                59.7145787105       55.3733891511       41.5887263640
H                62.7345946407       52.5607455449       42.1234766842
H                60.2311871819       52.8421645946       40.5953181056
H                61.6171416260       54.8317540281       42.4554579734
H                60.7372303503       53.0119213413       43.5170136403
H                59.4166505638       56.0194117119       42.4089764107
H                60.1599382629       55.9744729403       40.8037156015
H                58.8282471292       54.8825443814       41.1971941661
N                63.0803046527       54.0211124328       39.7414268683
C                63.8354421029       54.5614375895       38.6332256371
C                63.7416299746       53.5661807770       37.4736237362
O                63.3246201717       53.9265561789       36.3738402029
C                65.2763564044       54.8714335742       39.0699257294
C                65.2357139992       55.9462947324       40.1640448065
C                66.0901757057       55.3392754077       37.8693119950
C                66.5542353781       56.1364583877       40.9032958208
H                63.6059376683       53.5700161346       40.4772953730
H                63.3397687615       55.4794882535       38.2885475242
H                65.7044695999       53.9483616410       39.4750465639
H                64.9284568979       56.8889590603       39.7086671034
H                64.4836406978       55.6608297988       40.8987744570
H                67.1151823373       55.5536945700       38.1533701087
H                66.0992642512       54.5857516815       37.0862060708
H                65.6508477522       56.2472385606       37.4647757956
H                66.4173660919       56.8661012112       41.6975431531
H                66.8651259270       55.1955252783       41.3499356285
H                67.3423010921       56.4936981265       40.2472852812
N                64.0468674860       52.2951361847       37.7279256446
C                63.9361871117       51.2879700967       36.6892593708
C                62.5961053519       51.3386978406       35.9466831943
O                62.6116913936       51.2990043722       34.7171612883
C                64.2377375958       49.8864005179       37.2486306652
C                65.6888918997       49.8241739185       37.7427995154
C                64.0077910267       48.8324176122       36.1708177716
C                65.9744292520       48.5842925982       38.5806473483
H                64.3284657163       51.9879118568       38.6532167156
H                64.6756510352       51.5018892597       35.9012780654
H                63.5547482503       49.7119557919       38.0872369469
H                66.3554082696       49.8380453993       36.8793107300
H                65.9032817211       50.6997493521       38.3545525397
H                64.2414965603       47.8423021129       36.5479100704
H                62.9770852530       48.8408157733       35.8315140489
H                64.6452610982       49.0250474283       35.3109133236
H                66.9813372250       48.6432923207       38.9849139504
H                65.2672827078       48.5279518608       39.4051262281
H                65.8959398118       47.6739653699       37.9939013535
N                61.4303490844       51.3454817440       36.6152243987
C                60.1952490063       51.3731446598       35.8465890435
C                60.1825280908       52.6066750894       34.9737764251
O                59.8305520470       52.5302460797       33.8102091223
C                59.0341237904       51.3995605100       36.8431665655
C                59.6714259140       51.7815222906       38.1809923598
C                61.1913813125       51.7605355203       37.9809537740
H                60.1230645788       50.5201373860       35.1642201583
H                58.2878762526       52.1267084291       36.5212898332
H                58.5416321209       50.4301724136       36.8950342307
H                59.3592624411       52.7813191191       38.4793112025
H                59.4090995080       51.0702598671       38.9592233280
H                61.5943629181       52.7582772725       38.1455587467
H                61.6765604222       51.0870639546       38.6838270351
N                60.5291614897       53.7717529852       35.5328253661
C                60.4753665955       54.9719602639       34.7338518458
C                61.4738491305       54.9665985472       33.5703694221
O                61.2027305529       55.6100684808       32.5568066681
C                60.7267680918       56.2353182637       35.5462895680
S                59.4403048753       56.5253162348       36.8100268444
H                60.8635188898       53.8292715287       36.4807429260
H                59.4750613320       55.0320147208       34.2772347489
H                61.6942590870       56.2032160192       36.0421937391
H                60.6941506965       57.0878187781       34.8674655067
H                59.9832116526       55.7622357376       37.7554395949
N                62.6059900266       54.2978199521       33.7349525323
C                63.6478806903       54.2399904169       32.7190004813
C                63.1771954996       53.3202084373       31.5934665221
O                63.2760479756       53.6373482521       30.4106115339
C                64.9794353172       53.7735204661       33.3433059756
C                65.7877678648       54.9533418058       33.9100434812
C                65.8456773348       53.0199877109       32.3315991085
C                64.9575066082       56.0422727969       34.5782940526
H                62.8305551078       53.9206495676       34.6530136650
H                63.7765380236       55.2294349290       32.2627159665
H                64.7226576265       53.0896646215       34.1587539691
H                66.4956232150       54.5555724676       34.6401029530
H                66.3678750835       55.4016914427       33.1014717138
H                66.7999290658       52.7491063153       32.7769092689
H                65.3566663247       52.1119394345       31.9885727602
H                66.0458427466       53.6481195551       31.4663993596
H                65.6220590524       56.7717168882       35.0319135854
H                64.3308936627       56.5640158122       33.8597417882
H                64.3225919768       55.6178897510       35.3483865932
N                62.6344053791       52.1762585891       31.9990678275
C                62.0880068224       51.2305827186       31.0579900526
C                60.7701938834       51.7266564739       30.4724860079
O                60.4586158079       51.4239090179       29.3280738405
C                61.8665480250       49.8620683275       31.6939597404
C                63.1318207883       49.2256949378       32.2762156688
C                62.7192219127       47.9645479217       33.0275717032
C                64.1569785859       48.9011412916       31.1968595824
H                62.5789971369       51.9691947210       32.9914526548
H                62.7624149560       51.1456058884       30.1946247817
H                61.1366896540       49.9798509648       32.4958150443
H                61.4466292930       49.2044201090       30.9296221450
H                63.5768017790       49.9254260766       32.9871674168
H                63.5859610329       47.4010845783       33.3606530057
H                62.1129207350       48.2287263632       33.8883181083
H                62.1268935566       47.3282440722       32.3801692105
H                64.9970082259       48.3662018336       31.6316746911
H                63.7103533606       48.2777747482       30.4256973484
H                64.5400260199       49.8076614191       30.7343980101
N                60.0067728823       52.4978394489       31.2393380453
C                58.7865274564       53.1010789410       30.7433444473
C                59.1879839630       54.2197880156       29.7977463354
O                58.5657541550       54.4286941976       28.7607812519
C                57.8425028166       53.5554908796       31.8692401275
C                57.1822979634       52.3195525144       32.4911706504
C                56.8097034075       54.5250480853       31.3054393435
C                56.4753886231       52.6049096979       33.8077453582
H                60.1721557822       52.5853292321       32.2345010363
H                58.2524175296       52.3730835625       30.1256612404
H                58.4343764921       54.0721281959       32.6275276520
H                56.4395254911       51.9350268452       31.7937871012
H                57.9480551265       51.5576565476       32.6324489739
H                56.0749555725       54.7967036895       32.0569479709
H                57.2982346080       55.4290257851       30.9523276989
H                56.2941515106       54.0689011643       30.4649045515
H                56.1065378322       51.6808631812       34.2461982451
H                57.1350100474       53.0884483303       34.5237368003
H                55.6250521927       53.2507455767       33.6283062252
N                60.2972300893       54.8896045104       30.1094599819
C                60.8877697987       55.7429542827       29.1123948339
C                61.3239265545       54.8878411776       27.9262716556
O                61.2056384203       55.3570332619       26.7993508811
C                62.0473893742       56.5932108138       29.6521738038
O                61.6388677713       57.5353021237       30.6011429729
H                60.7312960337       54.8424602194       31.0240947071
H                60.1135412095       56.4246806029       28.7265933793
H                62.8173062653       55.9228257498       30.0517014137
H                62.4635145267       57.1631156017       28.8173200285
H                61.3839357760       57.0611177362       31.4094216591
N                51.0486164145       51.3962914680       39.8566545351
C                52.1400829208       51.9165660055       40.6573177476
C                51.5913554872       52.9796722884       41.6150622950
O                51.9504221863       53.0266588134       42.7923965227
C                53.2776229823       52.4569984481       39.7921733086
C                53.9173553364       51.3938236719       38.8858552460
C                54.9940240135       52.0516692118       38.0248304368
C                54.5310078502       50.2398947863       39.6728496397
H                51.0479884149       51.5329683530       38.8524829179
H                52.4988181626       51.1009011248       41.2965918938
H                52.8755327023       53.2639627860       39.1761633167
H                54.0398105524       52.8687332692       40.4543495762
H                53.1367554135       50.9936685487       38.2368833964
H                55.3761244468       51.3484675786       37.2896464014
H                54.5834304503       52.9104470954       37.5028036214
H                55.8215075370       52.3850635168       38.6439834208
H                54.9770606336       49.5333333615       38.9788282928
H                55.3063469570       50.6011844064       40.3413830570
H                53.7718246907       49.7152950473       40.2458609098
N                51.8913715222       52.5084315301       50.5058086325
C                53.1781360153       52.7562140711       51.1278435860
C                53.1171631666       54.0792455692       51.9033666595
O                53.5516607161       54.1745103210       53.0453578610
C                54.3140138857       52.7857153927       50.0816504684
O                54.4316060797       51.5812650375       49.3641950218
C                55.6502964644       53.0288180163       50.7770957307
H                51.8443550738       52.2691508850       49.5226224678
H                53.3700854687       51.9705929072       51.8726604371
H                54.0932294919       53.6163946261       49.3918418487
H                53.5950009912       51.3373782143       48.9437782506
H                56.4559640298       52.9990276330       50.0507208915
H                55.6339781583       53.9893331777       51.2821612491
H                55.8195211792       52.2466017207       51.5115873968
N                57.5290834374       62.3677481481       40.5764145148
C                57.0897367181       61.2046876153       39.8385970282
C                55.6621477321       61.4230454605       39.3691030069
O                55.2887422750       60.9432190899       38.3030327292
C                57.2257204896       59.8456528671       40.5803169096
C                56.0283605377       59.5881112757       41.5125893501
C                58.5914576410       59.7205312422       41.2505095628
C                56.1698762857       58.3467476258       42.3894071225
H                57.8737497703       62.2423011873       41.5210486771
H                57.6924507990       61.1350244338       38.9230753218
H                57.1921091771       59.0788929183       39.7971848464
H                55.8261691279       60.4590276022       42.1323464922
H                55.1561703292       59.4457691910       40.8711111948
H                58.7090883200       58.7284854811       41.6762447534
H                59.3800523621       59.8623125973       40.5147427976
H                58.7096189682       60.4549457006       42.0370031140
H                55.2095551610       58.0865064155       42.8298375973
H                56.4831543081       57.5108044589       41.7707706284
H                56.8709573209       58.4947857630       43.2075939638
N                59.9050189635       42.3425774204       52.8496207235
C                59.7168870326       43.1528868495       54.0300044154
C                59.2397345650       42.3392982672       55.2406298310
O                59.5140273144       42.6938778419       56.3807219593
C                58.6773051463       44.2504679553       53.7873452052
C                59.0063767623       45.2430277807       52.6581825935
C                58.1487539728       46.4969943543       52.8246541318
C                60.4791353447       45.6318163533       52.6249285570
H                59.2991479861       42.5211942173       52.0604691919
H                60.6795271037       43.5908920924       54.3286114437
H                57.7275592380       43.7576164047       53.5630479754
H                58.5627037251       44.7900031088       54.7302302732
H                58.7542544674       44.7683478899       51.7059519019
H                58.2503877626       47.1459849441       51.9604323435
H                57.1021705621       46.2284979798       52.9366364761
H                58.4733316758       47.0483715936       53.7045289791
H                60.6130651766       46.4455812745       51.9191754610
H                60.8046047255       45.9677430835       53.6061259910
H                61.0933511594       44.7888730410       52.3207740456
N                65.5003348767       40.1372851793       54.7630405746
C                65.9111927635       40.6433275984       53.4688901572
C                67.4277135896       40.8834241783       53.4312690544
O                67.9703682362       41.6777870513       54.1819366947
C                65.2398856533       41.9781754247       53.1138312342
C                65.5203660214       42.3444615161       51.6532471667
C                64.9167899380       41.2956181674       50.7167572175
C                64.9931874747       43.7382016851       51.3278093190
H                65.6036194182       40.7578057106       55.5510567488
H                65.6063153210       39.8698573750       52.7605488305
H                64.1631829634       41.8963576314       53.2861156226
H                65.6408589987       42.7505661727       53.7746966451
H                66.6088254392       42.3588693096       51.5189103267
H                64.5944727603       41.7584707973       49.7897662233
H                65.6438927567       40.5188357330       50.4992756912
H                64.0527629892       40.8245345624       51.1746102836
H                65.1709974366       43.9695435248       50.2808363647
H                63.9244716053       43.7983141250       51.5174508293
H                65.4955539210       44.4816088725       51.9402595175
N                68.5886732374       39.1904527693       45.5939587202
C                67.6876332173       40.1393024603       44.9782939685
C                68.2562436786       40.6259660028       43.6532746396
O                67.5857775892       40.6254597928       42.6258485203
C                67.4633482264       41.3575804340       45.8758945182
C                66.9818192307       41.0347538896       47.2950327951
C                66.7803903759       42.3548250890       48.0417817376
C                65.6973699988       40.2157864965       47.2712448956
H                69.1645288025       39.5439494595       46.3465382645
H                66.7453145198       39.6284786980       44.7486614679
H                68.4082701585       41.8987980072       45.9488579571
H                66.7254622749       42.0016229554       45.3951560235
H                67.7521512107       40.4523261455       47.8119307230
H                66.8633980291       42.2155928188       49.1151586595
H                67.5158236231       43.0873836646       47.7192235319
H                65.7978567961       42.7648056166       47.8242613800
H                65.3545015097       40.0188219018       48.2809501526
H                64.9029531386       40.7474755875       46.7514247120
H                65.8707671907       39.2663010313       46.7739616183
N                66.4217355252       40.4773607437       40.0460131641
C                66.1275892319       41.7690669105       39.4627403555
C                66.8647722372       41.9766953993       38.1433109904
O                66.2994333436       42.5062816547       37.1870419177
C                66.4956897841       42.8875192477       40.4408391421
C                65.6790788230       42.8720684844       41.7286011698
S                63.8974501613       43.1886782217       41.4717834107
C                63.2548050748       41.4980687987       41.2685270912
H                66.8364702035       40.4795132889       40.9710478457
H                65.0592039894       41.8246467368       39.2145083400
H                67.5503864642       42.7811285239       40.6991208026
H                66.3531720906       43.8489254691       39.9447209233
H                65.7871229436       41.9357815614       42.2722720717
H                66.0101629894       43.6910151662       42.3660273645
H                62.1915848166       41.5528174912       41.4750509434
H                63.4061264965       41.1569265291       40.2493331222
H                63.7425495356       40.8351421902       41.9749256339
N                65.2693564081       42.3340028124       34.6149061315
C                65.6337839624       43.4830790580       33.8173484133
C                66.1607574252       43.0596940273       32.4530775680
O                65.8637834236       43.7063360663       31.4550177977
C                66.6938667901       44.3621133718       34.5272444705
O                66.2199920608       44.8744610882       35.7445526630
C                67.0588864946       45.5546803855       33.6518219821
H                65.7081197836       42.2198076829       35.5219867428
H                64.7419120599       44.1006992435       33.6306514573
H                67.5795030951       43.7284430636       34.6921497099
H                66.1511058981       44.1528368668       36.3892323528
H                67.7721257517       46.1859146789       34.1724150306
H                67.4837348754       45.2217453358       32.7121490336
H                66.1597953790       46.1326467980       33.4559023781
H                61.6942535518       53.9716979327       28.0796974356
H                51.0034510813       50.5027870777       39.9546851278
H                50.9284070249       53.6530431643       41.2878452419
H                51.4862588011       51.8185587438       50.9180697413
H                52.7157237045       54.8902422595       51.4777721029
H                58.2071888673       62.7638975430       40.1368252941
H                55.0280451535       61.9570715521       39.9283257292
H                60.7416338092       42.4557433281       52.5377408149
H                58.6985817530       41.5096145770       55.1035947685
H                64.6268090604       39.9220579831       54.7379427196
H                67.9972353758       40.3824841438       52.7795758621
H                68.1150683031       38.5095808372       45.9434036775
H                69.1986098163       40.9570527322       43.6050290160
H                65.6616575760       40.0011657772       40.1203089588
H                67.8156501940       41.6815261773       38.0500037472
H                64.3861118639       42.3552776088       34.7864475496
H                66.7485495944       42.2547640676       32.3719102969
