 124 
 
N               231.6160154786       67.5805083893      118.0847271418
C               232.1737976779       68.9130679237      118.0995960068
C               233.3744853080       69.0950463155      119.0343039965
O               234.0144323392       70.1376379806      119.0123407578
C               231.0927618215       69.9313432379      118.4746487997
C               229.9397786822       69.9774197460      117.4661435227
C               228.8326541048       70.9052691544      117.9587210486
C               230.4292359431       70.4436117270      116.1027438368
H               230.8440332402       67.4068744389      118.7211038287
H               232.5610335792       69.1180265824      117.0949388809
H               230.7078005696       69.6714551847      119.4624608701
H               231.5634247436       70.9130469680      118.5469142376
H               229.5213834826       68.9699352284      117.3736524324
H               228.0093305242       70.9117475424      117.2494001189
H               228.4580332974       70.5834706745      118.9275787623
H               229.1925272282       71.9271014081      118.0560216923
H               229.5904152469       70.5351549325      115.4203848164
H               230.8989983748       71.4181534947      116.2006875256
H               231.1486699099       69.7423563009      115.6878816594
N               223.0380882192       75.3913684131      114.1959545627
C               223.2220523500       74.1414439404      113.5015610940
C               221.8487918809       73.5518599502      113.1655744112
O               220.8398058248       73.9170167040      113.7472318738
C               223.9556015708       73.1370031388      114.4156969263
C               225.3987797792       73.4867071873      114.6638721355
C               225.8504909587       73.8272715485      115.9320704956
C               226.3320714260       73.4012302212      113.6402159969
C               227.1956597563       74.0037513896      116.1985770652
C               227.6801974503       73.5398721670      113.8982617062
C               228.1275550597       73.8125699065      115.1850090171
O               229.4548570617       73.9164442698      115.4732154182
H               222.3156138468       75.3904586142      114.9107884987
H               223.8005425508       74.3311130048      112.5930591920
H               223.4224860859       73.0957136253      115.3669902591
H               223.9002127193       72.1498637069      113.9536991581
H               225.1386150384       73.9400624341      116.7324467590
H               226.0127850520       73.2138608703      112.6263861437
H               227.5454526512       74.2575389496      117.1884060110
H               228.3913602637       73.4038564225      113.1000556562
H               229.9648500566       73.4830565721      114.7754238424
N               221.9870049758       66.1256299518      116.4584300323
C               222.7185957412       67.0954704765      115.6537277837
C               222.9096008674       66.4932648247      114.2589811268
O               223.5622646287       65.4674432556      114.0762948777
C               224.0521774142       67.3906611526      116.3362324304
C               224.9341219331       68.3752529697      115.5609347724
C               224.3024432233       69.7505850557      115.3764917930
C               226.2694935587       68.5461547727      116.2842168442
H               222.5569301460       65.5522917467      117.0813934674
H               222.1014276706       67.9933212591      115.5657714379
H               223.8536554340       67.7743879972      117.3370698401
H               224.5840449301       66.4416097759      116.4393841521
H               225.1096685864       67.9555855212      114.5665114102
H               225.0513378736       70.4134367152      114.9509811443
H               223.4508202628       69.7195536238      114.7019949433
H               223.9937026926       70.1622069436      116.3324640401
H               226.9730842426       69.0934886855      115.6613533764
H               226.1234483790       69.0951616271      117.2092397035
H               226.7187929446       67.5856204359      116.5257475749
N               222.2333612878       67.0943167925      113.2747178267
C               222.2699432694       66.5234641781      111.9396912608
C               223.7208314376       66.5890798246      111.4554579402
O               224.3861400857       67.6096411777      111.5608966628
C               221.3344683861       67.2878025576      111.0149348608
H               221.9395572313       68.0677045971      113.3469820467
H               221.9597986013       65.4756169740      112.0241475166
H               221.3491774548       66.8578016919      110.0180183128
H               220.3207495343       67.2477920772      111.4066394290
H               221.6488548982       68.3267463135      110.9560135213
N               224.2240857005       65.4520051041      110.9524706829
C               225.6083369069       65.3919801779      110.5390231106
C               226.5434621530       66.0206370158      111.5686933347
O               227.5333670477       66.6615039809      111.2284245846
H               223.6682927032       64.6130827319      110.9218676914
H               225.8974045933       64.3510260478      110.3926620166
H               225.7577613685       65.9403162315      109.6020906466
N               226.2814390663       65.7859123093      112.8590170822
C               227.2124645042       66.3172378090      113.8315214631
C               227.8145298768       67.6468977124      113.3514705434
O               229.0076562998       67.8717262863      113.4841823593
H               225.4166557772       65.3639890960      113.1802673323
H               226.7054576976       66.4431712013      114.7830788088
H               228.0556570700       65.6290034628      113.9614018803
N               226.9376036785       68.5580383176      112.8737466474
C               227.4128339504       69.5634945731      111.9322764458
C               228.6329655715       70.2332351918      112.5612561129
O               228.5651828931       70.8229085523      113.6260341076
C               226.2874970085       70.5471816927      111.6601593978
H               226.0021000137       68.2384252760      112.6451558611
H               227.7149169190       69.0579208525      111.0032532826
H               226.6142104875       71.3023407923      110.9510934538
H               225.4337108222       70.0116229888      111.2530857774
H               226.0084781686       71.0237551854      112.5948699192
N               229.7621518921       70.1730408914      111.8294866586
C               231.0613986049       70.3875333231      112.4246099238
C               231.4070370873       71.8492728651      112.6665356113
O               232.1356518306       72.1538102638      113.6055669370
C               232.1493247464       69.7636628038      111.5256492708
O               231.8549602105       70.1694249734      110.2038664200
C               232.1827518661       68.2447463256      111.6777994934
H               229.7765296948       69.7065105677      110.9347986229
H               231.0836565812       69.8978565732      113.4048623343
H               233.1214471849       70.1780936783      111.8311700422
H               232.4942002389       69.7595231207      109.6091853440
H               232.8737104175       67.8080790584      110.9598722156
H               232.5090235732       67.9827412476      112.6797643447
H               231.1944339003       67.8184255386      111.5225435848
N               230.9450039154       72.7384122930      111.7939180170
C               231.1315710770       74.1657708198      111.9531120505
C               229.7829584556       74.8385847085      111.6713535554
O               228.9863911256       74.3022265730      110.9012853517
C               232.2231576202       74.6959183068      111.0131123038
O               233.4735106779       74.3232674479      111.5406973762
H               230.3327079135       72.4525518669      111.0404372189
H               231.4590823263       74.3398572789      112.9822379991
H               232.0660773101       74.2729832814      110.0140868700
H               232.1327329922       75.7875822766      110.9490933853
H               234.1648909962       74.5703019987      110.9160534621
H               231.3030918391       67.3949767862      117.2615280042
H               233.6349779389       68.3616575993      119.6622248356
H               223.8040974803       75.6213217344      114.6086908972
H               221.7650899462       72.8520675709      112.4561488605
H               221.3939369756       66.5555166157      116.9813715237
H               229.5557048974       75.7070242834      112.1119991330
