 333 
 
N               102.9768149315       61.7241730414      176.4846048029
C               103.6867344200       61.0108170545      175.4442532185
C               103.3105497346       61.5679645027      174.0633629485
O               104.1517380894       61.6511784509      173.1752556055
C               103.4655927986       59.4997717153      175.5703738867
C               104.5545101153       58.6761271584      174.8596487404
C               105.5209035862       57.9887713402      175.8318428820
C               106.4619163649       58.9197384529      176.5952412328
N               107.6464797779       59.3042554558      175.7748866866
H               102.1794278736       61.2731375693      176.9119371476
H               104.7495660933       61.2486824143      175.5687323583
H               103.4495194532       59.2646220389      176.6357792557
H               102.4782813615       59.2664380830      175.1721921423
H               104.0710435219       57.8936450045      174.2760468965
H               105.0848335750       59.3110060665      174.1505110137
H               104.9238617281       57.4386265937      176.5590261360
H               106.1079711024       57.2528345558      175.2819720038
H               105.9354726231       59.8181087666      176.9155290602
H               106.8319006482       58.4004435975      177.4803433843
H               108.2948616872       59.8935060528      176.3158896170
H               108.1484775405       58.4556407436      175.4706336542
H               107.3943700299       59.8426397236      174.9306355238
N               102.0607396730       62.0118207505      173.9056781298
C               101.7068347243       62.8028036348      172.7427153568
C               102.5494351681       64.0895576193      172.6800012233
O               102.9601039579       64.5456024474      171.6229417851
C               100.2159775572       63.1631487013      172.7673986498
O                99.9450240660       64.0223743120      171.6794776039
H               101.3650954106       61.8449695437      174.6234720113
H               101.9269237210       62.2450578270      171.8233017503
H                99.6339565021       62.2373190410      172.6921015324
H                99.9885611199       63.6663258063      173.7151312404
H                98.9929195564       64.0616582013      171.5393581486
N               102.8273467763       64.6372499451      173.8658231109
C               103.6619050292       65.8225826326      173.9726347183
C               105.1055096424       65.4711162630      173.5725676510
O               105.7921812650       66.2001063751      172.8691525867
C               103.5890118333       66.3995326885      175.3903631419
C               104.2833215476       67.7542958756      175.4672969079
C               104.2396584747       68.4680076270      176.8055100859
O               104.7683790126       69.5735718700      176.9225793433
N               103.6321357034       67.8766963710      177.8348053395
H               102.3045590090       64.3071489576      174.6732651684
H               103.3150455746       66.5735115827      173.2489344193
H               102.5319388080       66.5083174907      175.6427507559
H               104.0650227043       65.6986031581      176.0769227656
H               105.3354442007       67.6604465313      175.1888446701
H               103.8365633515       68.4455000549      174.7469172216
H               103.1023197475       67.0226228027      177.7805116263
H               103.5149647897       68.4089518505      178.6849053734
N               105.5304528885       64.2838920757      174.0123038676
C               106.8013066372       63.7247502468      173.5956930703
C               106.8557770525       63.5935364832      172.0632686346
O               107.9185104188       63.7257045717      171.4596907954
C               106.9467704115       62.3416007680      174.2472797597
O               108.1989628620       61.7197770579      174.0695777458
H               105.0262313512       63.8316860693      174.7750576863
H               107.6324602640       64.3801536498      173.8909933195
H               106.8148122687       62.4703076186      175.3269973615
H               106.1475992096       61.7140033662      173.8286448896
H               108.5615399146       61.9358468858      173.2023149688
N               105.6997655506       63.2831439808      171.4789108590
C               105.5669217830       63.1937665901      170.0381981550
C               105.6742423333       64.5843875436      169.4030158001
O               106.2992341189       64.7429184274      168.3605223604
C               104.2635650002       62.5054208057      169.6562480394
H               104.9081056562       62.9719887748      172.0365072175
H               106.4218838304       62.6251076465      169.6494878907
H               104.2131117137       62.3968582051      168.5773101371
H               104.2227199944       61.5221346584      170.1164669002
H               103.4216507697       63.1042339519      169.9907244808
N               105.0921566865       65.6030834942      170.0379751992
C               105.4010546035       66.9623372763      169.6113414180
C               106.9263844640       67.0530269416      169.4925612384
O               107.4729222561       67.4743800236      168.4816979302
C               104.7952687175       67.9751917492      170.5847718964
C               105.1700968778       69.4491522778      170.3576456699
C               106.5540293937       69.7867777823      170.9105744684
C               105.0632845491       69.8707312422      168.8943998850
H               104.4572367921       65.4423923272      170.8129262510
H               105.0077728134       67.1239464362      168.5995964850
H               103.7104350937       67.8796345634      170.5169617443
H               105.0984908270       67.7055059007      171.5951772470
H               104.4489814649       70.0389426383      170.9337291874
H               106.7138135957       70.8621611554      170.8798453714
H               106.6489096555       69.4623175017      171.9442261731
H               107.3416541040       69.3211569996      170.3264221430
H               105.2148021883       70.9447130722      168.8175997453
H               105.8283541206       69.3832674188      168.2966182282
H               104.0825005368       69.6347881303      168.4889946741
N               107.6004088446       66.5635460347      170.5394669290
C               109.0460801470       66.4759046506      170.5357853990
C               109.5518707334       65.9284245700      169.1988017760
O               110.2497951436       66.5910152859      168.4433232321
H               107.1019319851       66.3629036670      171.3992299610
H               109.5123742441       67.4562465357      170.6891734208
H               109.3599434458       65.7964085441      171.3273765132
N               109.1147527015       64.6973927696      168.8935793033
C               109.6704704508       64.0232601998      167.7353158822
C               109.3524577171       64.7797861958      166.4453023407
O               110.0692675160       64.6747888989      165.4492737693
C               109.2411400774       62.5431369963      167.6717932840
O               110.1959006741       61.8701336927      166.8731593810
C               107.8341032551       62.3507615857      167.1102308876
H               108.6810805070       64.1542141651      169.6327692416
H               110.7682336676       64.0324759710      167.8301364023
H               109.2964863718       62.1726133228      168.7076864057
H               110.1062818724       60.9208554332      167.0256145767
H               107.5115972590       61.3226530386      167.2519435913
H               107.1462822415       63.0266386298      167.6045705354
H               107.8327794472       62.5928654006      166.0530422207
N               108.2321597951       65.4986788575      166.4340601198
C               107.8996044357       66.3660503867      165.3242046976
C               108.9297759263       67.4870800509      165.1562006442
O               109.2821296837       67.8243886021      164.0268887522
C               106.5015563937       66.9428947241      165.4980272396
H               107.6536069479       65.5563785991      167.2641703764
H               107.9548625775       65.7785100099      164.3983315098
H               106.2461138392       67.5644764315      164.6445062620
H               105.7828216985       66.1342113249      165.5904641208
H               106.4758794546       67.5477961529      166.3992703018
N               109.3654279807       68.0661060129      166.2701727172
C               110.4629427879       69.0089980692      166.2506262607
C               111.7183189519       68.3335295146      165.6965028999
O               112.4300912013       68.8868703290      164.8604722169
C               110.7623072365       69.6063767749      167.6337139915
C               109.4986359703       70.1180121480      168.3395255190
C               111.8114013784       70.7076691701      167.4925141304
C               108.6693362985       71.1299379141      167.5581288095
H               109.0804459433       67.7003750771      167.1703942936
H               110.2180697045       69.8202955107      165.5526897399
H               111.1891477455       68.8077837768      168.2523602005
H               108.8669551565       69.2626960002      168.5781240426
H               109.8164834795       70.5650607777      169.2838094845
H               112.0384732421       71.1336241304      168.4660524901
H               112.7329454985       70.3045561446      167.0779637788
H               111.4619343904       71.4997747488      166.8350224209
H               107.8691127003       71.4970997565      168.1946222031
H               109.2638889992       71.9824019372      167.2426654157
H               108.2221256712       70.6691302265      166.6825878245
N               111.9418694580       67.0814012423      166.1127892681
C               113.1158532431       66.3934697799      165.6101002723
C               113.0312713669       66.3905931289      164.0809406357
O               113.9955722709       66.6780232607      163.3746403336
C               113.2329879264       64.9563611028      166.1191253071
C               113.9339911546       64.8469703208      167.4724182176
C               113.1617010046       65.5372830538      168.6414831833
O               112.4062391698       64.8041293399      169.3140461671
O               113.3779598891       66.7518771117      168.8252013132
H               111.5092175745       66.7584053995      166.9712339031
H               114.0218557140       66.9562768973      165.8825951152
H               112.2355280346       64.5179240641      166.1708314186
H               113.8194079728       64.3937478023      165.3865659100
H               114.0471022984       63.7926495467      167.7332360996
H               114.9227675526       65.3089282206      167.4146979968
N               111.8566372567       66.0026054741      163.5859727020
C               111.5961660497       66.0328330457      162.1595686280
C               111.8590384578       67.4320413211      161.5952780870
O               112.4991865322       67.5779448454      160.5537426435
C               110.1494919356       65.6460139908      161.8492219734
C               109.8751846529       64.1542120775      162.0452065434
C               108.3605379899       63.9077842537      161.9511778323
N               107.9883878794       62.5356208804      161.6618287561
C               107.9745342085       61.5373792599      162.5402248082
N               108.4605063245       61.6904391513      163.7671089664
N               107.4435811764       60.3650615629      162.1881858191
H               111.1154696457       65.7213397883      164.2227815981
H               112.2996667332       65.3560991935      161.6535880981
H               109.5047015218       66.2404453167      162.4982198677
H               109.9463459316       65.9258600909      160.8142197112
H               110.3959468136       63.5889557669      161.2724673599
H               110.2681514674       63.8610097300      163.0185091035
H               107.8820341545       64.2214589785      162.8828876909
H               107.9615070201       64.5216086712      161.1438841947
H               107.6844552558       62.3434883348      160.7180675143
H               109.0052240624       62.4983977179      164.0295069692
H               108.4734816722       60.9104220657      164.4057781228
H               106.9243508560       60.2660134145      161.3302772966
H               107.3729337334       59.6210518545      162.8652469951
N               111.3162054622       68.4590992441      162.2509318407
C               111.4168134307       69.7730964313      161.6510008470
C               112.8863762736       70.0703900279      161.3428692727
O               113.2352907018       70.7298990308      160.3719264779
C               110.8133382933       70.8349600351      162.5727745860
C               109.2973714009       70.9764041654      162.3662308767
C               108.6173430673       71.5618878562      163.6010824191
C               109.0211741498       71.8490674482      161.1441761288
H               110.6281228560       68.2959752495      162.9871788545
H               110.9101744470       69.7799711143      160.6718443436
H               111.0449640956       70.5475770357      163.5984251334
H               111.2922887818       71.7935788094      162.3663621013
H               108.8824888961       69.9794374237      162.1775918379
H               107.5640685769       71.7375547978      163.3981006217
H               108.6885903669       70.8653382309      164.4292186731
H               109.0759438224       72.5051489866      163.8848138693
H               107.9556302436       71.9089684210      160.9304797360
H               109.4021735638       72.8565424932      161.2975287355
H               109.4957169799       71.4407277850      160.2517703708
N               113.7402988899       69.6142728900      162.2717840663
C               115.1646111844       69.8240434338      162.1998309028
C               115.8681878241       68.9813439103      161.1225654669
O               116.6578577418       69.4817884791      160.3391014328
C               115.7777280437       69.4910088140      163.5641542356
O               117.1731362680       69.6554928654      163.4925354157
H               113.3747279789       69.1387783278      163.0876401142
H               115.3733045365       70.8700128053      161.9384871162
H               115.3385444647       70.1583454022      164.3181209940
H               115.5157241076       68.4547846130      163.8197807135
H               117.5507842853       69.4977219572      164.3667397965
N               115.5791006378       67.6695181180      161.1427640082
C               116.3713856413       66.7199451090      160.4038764237
C               115.7007761403       66.0255147192      159.2143154273
O               116.4004137965       65.3131272043      158.4879752392
C               116.8675805916       65.5884373393      161.3293722041
O               117.8255519510       64.7761685109      160.6998514517
H               114.9278109006       67.3217705465      161.8385178955
H               117.2356124290       67.2679560516      160.0043963177
H               117.3350340393       66.0221431737      162.2171260212
H               115.9952184429       64.9907453066      161.6313630129
H               117.5664142750       64.7077864883      159.7558554988
N               114.3919203350       66.1700536668      159.0643943288
C               113.6773119804       65.4483749775      158.0402083389
C               113.5089393169       63.9729642893      158.4223856300
O               113.7519572626       63.5446732422      159.5429885966
H               113.8572065716       66.7680868623      159.6866395683
H               112.7032171754       65.9118974113      157.8668540725
H               114.2433760777       65.4880766306      157.1036051765
N               113.1867431355       56.1579039440      162.0096618816
C               112.4449499440       56.1562229803      163.2539543850
C               111.0869390635       55.4570216150      163.0527908566
O               110.7966672027       54.4264563366      163.6432548456
C               112.3238660841       57.5792367986      163.8415670930
C               112.0234528309       58.6859622510      162.8424553835
O               111.2983426024       58.5430768089      161.8593043397
N               112.5669283453       59.8654736839      163.1311855315
H               112.8002316813       56.6712595881      161.2229396511
H               113.0095982669       55.5298680807      163.9534901735
H               111.5209022608       57.5705328819      164.5842370672
H               113.2550817952       57.8103550116      164.3589488807
H               112.4044211655       60.6441856281      162.5095968647
H               113.1504595576       60.0076008815      163.9398463816
N               110.3048511982       56.0744323159      162.1593789090
C               108.9529138403       55.6386548064      161.8858837290
C               108.5884944850       55.8629836309      160.4148439123
O               108.1482601302       54.9759962558      159.7013982700
C               107.9532766626       56.4033242237      162.7944762443
O               108.4208126991       56.5454380581      164.1088491123
H               110.5946372727       57.0275188319      161.8842336092
H               108.9034024086       54.5646931172      162.0983800967
H               107.8325394042       57.4218951465      162.4195560306
H               106.9856184946       55.8888279498      162.7600053192
H               108.5816196480       55.6760410513      164.4918933886
N               108.7600643812       57.1270758420      159.9922587142
C               108.4084668671       57.5640817225      158.6496983628
C               109.0062507578       56.6625553354      157.5705797134
O               108.4504836389       56.4517410801      156.5051187035
C               108.9454489685       58.9787585441      158.4343437957
H               109.2264300615       57.8087568512      160.5780536487
H               107.3201024996       57.5312618459      158.5280428228
H               108.6771105570       59.3326817333      157.4431005328
H               108.5219355981       59.6519774320      159.1725500247
H               110.0294012360       58.9825386220      158.5271755776
N               102.6991303983       71.7171165318      160.2039201637
C               103.5940920863       71.7228545796      161.3367552211
C               103.5129285954       73.0033509663      162.1746567816
O               103.7123442978       72.9491156651      163.3877780981
C               105.0423277989       71.5245787845      160.8890470336
C               105.3104608197       70.1210876940      160.3704848886
S               105.1549959822       68.8866078862      161.6880563012
C               106.1069505419       67.5271613858      160.9751761817
H               103.1070371798       71.8374447325      159.2863042783
H               103.3204564602       70.8944187925      162.0065976927
H               105.2810509144       72.2332742658      160.0912166894
H               105.7040096182       71.7195898610      161.7364862626
H               104.6265223612       69.8579438465      159.5595953351
H               106.3259157535       70.0516203050      159.9753695653
H               106.0070431626       66.6831245961      161.6474360037
H               105.7082708108       67.2884217495      159.9912141837
H               107.1496765981       67.8252846413      160.8773465723
N               100.4839076595       72.2941816192      164.1424095051
C               100.8134179987       71.2700174469      165.1200820843
C               101.4896145526       71.8784542419      166.3513373659
O               101.1054010389       71.6160735341      167.4858691500
C               101.7161988852       70.2189284683      164.4848690068
H               100.7162011989       72.0954303281      163.1699451289
H                99.8862733495       70.8095184684      165.4896867109
H               101.8556053020       69.3864948258      165.1673620651
H               101.2682196237       69.8579140568      163.5635057434
H               102.6901379250       70.6466733108      164.2615521587
N               102.5442558551       72.6537896536      166.0937796256
C               103.3037383498       73.2541430410      167.1704586675
C               102.3916450180       74.0603595330      168.0954521033
O               102.4256693546       73.9007770553      169.3111063453
C               104.4128115282       74.1472410155      166.6123361373
C               105.6099392832       73.3124166827      166.1433802517
C               106.5814226878       74.1824328682      165.3648369326
O               107.6066786026       74.6483001554      165.8356221552
N               106.1854213405       74.4056463054      164.1019115479
H               102.8423977641       72.8426804375      165.1416074759
H               103.7355457396       72.4596783742      167.7944397535
H               104.0011241006       74.7290521455      165.7856607582
H               104.7399284804       74.8446093577      167.3847993435
H               106.1305964479       72.8927613463      167.0029293253
H               105.2647247946       72.5050611419      165.4985957461
H               105.3327234180       73.9750389496      163.7689077020
H               106.7530826926       74.9708480067      163.4926382601
N                99.8852951871       71.8788947847      170.1285689878
C               100.4741018327       71.1290393913      171.2173323985
C               101.0097184822       72.0365218321      172.3262708082
O               101.0030875489       71.6701305493      173.4980277146
C               101.5944586952       70.2302419842      170.6926544873
C               101.0588624243       69.0318443081      169.8983822075
C               100.4248000224       67.9816837237      170.8029686530
O                99.5069345496       68.2423051378      171.5688459878
N               100.9412856516       66.7501882752      170.6928968637
H               100.3616796815       71.8528602295      169.2316856567
H                99.7034021730       70.4974952886      171.6804870617
H               102.2434702080       70.8284130241      170.0509385009
H               102.1744725809       69.8740799681      171.5452253386
H               100.2976078353       69.3837700778      169.2011787222
H               101.8698539623       68.5870743392      169.3243412114
H               101.7045124167       66.5308039289      170.0765903237
H               100.5753840706       65.9785040665      171.2365505948
H               103.5382782805       61.8988429994      177.1659632355
H               113.1877721458       63.3138311888      157.7423891564
H               114.0003113056       56.5180175354      162.1454007260
H               109.8884280416       56.2171336738      157.7234286039
H               102.2635870020       70.9302931023      160.1691230267
H               103.2990476234       73.8757577594      161.7351555675
H                99.5968437138       72.4458198670      164.1535179754
H               101.7553734198       74.7294075719      167.7113516282
H                99.0550763753       71.5715198347      169.9665277443
H               101.3714204678       72.9411873989      172.1009890163
