305
Properties=species:S:1:pos:R:3 pbc="F F F"
N      19.38500000      27.47100000      72.92100000 
C      19.28300000      26.34100000      72.03800000 
C      19.56100000      26.80300000      70.64400000 
O      19.36500000      27.98600000      70.30600000 
C      17.92800000      25.67300000      72.19300000 
C      16.78200000      26.67500000      72.09300000 
C      15.54300000      25.97400000      71.61000000 
O      15.27700000      26.05600000      70.37700000 
O      14.88300000      25.30500000      72.45900000 
H      19.13200000      28.38300000      72.59800000 
H      20.04800000      25.63900000      72.31100000 
H      17.83200000      24.89000000      71.45600000 
H      17.90900000      25.21000000      73.16400000 
H      16.61000000      27.11000000      73.06400000 
H      17.03300000      27.46200000      71.40700000 
N      20.06500000      25.88700000      69.83600000 
C      20.64500000      26.24900000      68.56600000 
C      20.33000000      25.19400000      67.55500000 
O      20.44200000      23.98500000      67.82000000 
C      22.15300000      26.37000000      68.70100000 
C      22.55500000      27.44300000      69.69100000 
C      24.07400000      27.57100000      69.79900000 
C      24.61900000      28.86700000      69.21600000 
N      25.65400000      29.44200000      70.13000000 
H      20.22300000      24.95200000      70.16400000 
H      20.22000000      27.18300000      68.25900000 
H      22.54000000      25.41600000      69.02500000 
H      22.57500000      26.58900000      67.72900000 
H      22.11500000      28.38500000      69.39500000 
H      22.14400000      27.20300000      70.66000000 
H      24.36600000      27.51200000      70.83800000 
H      24.54000000      26.73300000      69.30500000 
H      25.09400000      28.72200000      68.26300000 
H      23.85500000      29.61300000      69.11600000 
H      26.05200000      30.28300000      69.74600000 
H      25.24300000      29.67500000      71.02000000 
H      26.39800000      28.79200000      70.29400000 
N      19.96700000      25.64100000      66.36600000 
C      19.51100000      24.73100000      65.35000000 
C      20.26000000      25.02200000      64.08200000 
O      20.12500000      26.13200000      63.53600000 
C      18.01600000      24.90500000      65.12900000 
C      17.37500000      23.58400000      64.73400000 
C      15.98900000      23.80900000      64.23700000 
O      15.68100000      23.62300000      63.05000000 
N      15.11600000      24.26100000      65.13600000 
H      19.81600000      26.61900000      66.21400000 
H      19.71900000      23.73700000      65.69200000 
H      17.58600000      25.26200000      66.04900000 
H      17.85100000      25.66100000      64.37900000 
H      17.94100000      23.11000000      63.95000000 
H      17.36500000      22.93600000      65.59700000 
H      15.36200000      24.38700000      66.08300000 
H      14.18700000      24.47700000      64.85600000 
N      21.03600000      24.06700000      63.60200000 
C      21.78200000      24.21600000      62.37700000 
C      21.38400000      23.12700000      61.42900000 
O      21.30800000      21.94400000      61.82300000 
C      23.28500000      24.15300000      62.67400000 
C      23.64800000      25.39200000      63.50300000 
C      24.08800000      24.01200000      61.39300000 
C      25.09300000      25.84100000      63.37500000 
H      21.21100000      23.23000000      64.11900000 
H      21.54200000      25.17200000      61.94600000 
H      23.44600000      23.27200000      63.27100000 
H      23.00800000      26.20800000      63.20800000 
H      23.42300000      25.18900000      64.54200000 
H      25.14400000      24.00000000      61.61100000 
H      23.84800000      23.08300000      60.89600000 
H      23.88800000      24.82600000      60.71000000 
H      25.29300000      26.66800000      64.04100000 
H      25.78200000      25.04400000      63.61200000 
H      25.29800000      26.17300000      62.36700000 
N      20.57700000      25.99000000      53.36300000 
C      21.23400000      26.04300000      54.65200000 
C      20.47600000      26.98900000      55.53600000 
O      20.04300000      28.06000000      55.06100000 
C      22.67300000      26.51800000      54.45100000 
C      23.51200000      26.50100000      55.73000000 
C      23.89100000      27.88000000      56.27700000 
C      25.35500000      28.21200000      56.08700000 
N      25.71100000      28.25500000      54.63200000 
H      20.30900000      26.86400000      52.95300000 
H      21.23600000      25.05900000      55.07800000 
H      23.10100000      25.86400000      53.70900000 
H      22.64000000      27.50800000      54.02100000 
H      22.97600000      25.95200000      56.48600000 
H      24.41200000      25.93400000      55.55300000 
H      23.29100000      28.64900000      55.81000000 
H      23.69800000      27.93200000      57.33800000 
H      25.59700000      29.17900000      56.49100000 
H      25.98500000      27.47000000      56.53500000 
H      26.67200000      28.53200000      54.50500000 
H      25.59800000      27.35200000      54.20300000 
H      25.13400000      28.91200000      54.14200000 
N      20.31200000      26.67700000      56.81200000 
C      19.62800000      27.62000000      57.66500000 
C      20.06200000      27.41500000      59.07900000 
O      20.55700000      26.33200000      59.45400000 
C      18.10300000      27.52100000      57.50800000 
C      17.39100000      26.50800000      58.41100000 
C      16.74200000      27.21600000      59.59500000 
C      16.33100000      25.75200000      57.62900000 
H      20.63500000      25.80900000      57.18600000 
H      19.91900000      28.60700000      57.36000000 
H      17.69000000      28.49700000      57.67100000 
H      17.93600000      27.26800000      56.47600000 
H      18.11000000      25.79300000      58.78100000 
H      16.25700000      26.50700000      60.25500000 
H      17.45600000      27.78200000      60.16800000 
H      15.99000000      27.90500000      59.23000000 
H      15.77000000      25.09200000      58.27800000 
H      15.63800000      26.44700000      57.17300000 
H      16.77900000      25.15700000      56.84200000 
N      19.84800000      28.42300000      59.90900000 
C      20.06700000      28.22700000      61.31600000 
C      19.21700000      29.17400000      62.10300000 
O      18.81300000      30.24500000      61.61500000 
C      21.53000000      28.39500000      61.70300000 
C      22.00300000      29.83500000      61.65400000 
C      23.49600000      29.89300000      61.86200000 
O      23.92400000      30.46800000      62.90500000 
O      24.21800000      29.34100000      60.99000000 
H      19.44800000      29.27700000      59.57800000 
H      19.77800000      27.22400000      61.56100000 
H      21.66500000      27.99400000      62.69400000 
H      22.11500000      27.80100000      61.02400000 
H      21.76500000      30.26100000      60.68900000 
H      21.51900000      30.41800000      62.41700000 
N      18.99800000      28.78700000      63.35100000 
C      18.18800000      29.51900000      64.28200000 
C      18.80900000      29.38500000      65.64400000 
O      19.31700000      28.29800000      65.98200000 
C      16.78300000      28.94200000      64.31800000 
O      16.23700000      29.22900000      63.02300000 
C      15.92300000      29.53000000      65.40700000 
H      19.34800000      27.89400000      63.64000000 
H      18.12800000      30.54500000      63.98800000 
H      16.86200000      27.87200000      64.43700000 
H      15.32500000      28.96700000      62.95100000 
H      14.90300000      29.20200000      65.28100000 
H      16.26200000      29.21100000      66.38000000 
H      15.95500000      30.60700000      65.36200000 
N      18.75500000      30.42600000      66.45700000 
C      19.22800000      30.34000000      67.81000000 
C      18.26300000      31.06000000      68.71400000 
O      17.51900000      31.94600000      68.26300000 
C      20.62900000      30.91000000      67.95500000 
O      20.51600000      32.32100000      67.72400000 
C      21.59100000      30.28600000      66.97600000 
H      18.34300000      31.27700000      66.12900000 
H      19.26300000      29.30700000      68.09800000 
H      20.95700000      30.74000000      68.96600000 
H      21.35700000      32.73700000      67.57200000 
H      22.57200000      30.72500000      67.09200000 
H      21.66300000      29.22500000      67.13700000 
H      21.25400000      30.46500000      65.96700000 
N      18.24600000      30.68700000      69.99400000 
C      17.30800000      31.29100000      70.91600000 
C      17.86800000      31.24600000      72.30900000 
O      18.53500000      30.26100000      72.68800000 
C      15.98300000      30.53300000      70.89300000 
O      14.96200000      31.28200000      71.53300000 
H      18.74900000      29.87600000      70.28800000 
H      17.12700000      32.30500000      70.61900000 
H      15.73100000      30.34000000      69.86300000 
H      16.08800000      29.59800000      71.41200000 
H      14.61400000      31.93600000      70.91400000 
N      15.14400000      37.67500000      76.04800000 
C      14.81900000      36.77500000      74.96700000 
C      15.66700000      37.19500000      73.80500000 
O      15.81400000      38.40400000      73.54100000 
C      13.32500000      36.87100000      74.58800000 
C      13.03100000      36.20100000      73.25000000 
C      12.85200000      38.31700000      74.55600000 
C      13.18500000      34.68900000      73.26100000 
H      15.24300000      38.62700000      75.78400000 
H      15.07200000      35.77500000      75.25900000 
H      12.78700000      36.34600000      75.36300000 
H      12.01500000      36.44700000      72.97500000 
H      13.66300000      36.63100000      72.48700000 
H      11.80300000      38.35000000      74.30700000 
H      12.98500000      38.80000000      75.51200000 
H      13.39800000      38.87700000      73.81300000 
H      13.06300000      34.28200000      72.26500000 
H      14.15500000      34.38300000      73.62400000 
H      12.43400000      34.24200000      73.89900000 
N      16.20800000      36.22500000      73.08900000 
C      17.02900000      36.54400000      71.94400000 
C      16.78100000      35.45800000      70.94100000 
O      16.99000000      34.28300000      71.27500000 
C      18.48800000      36.61100000      72.39600000 
C      19.44300000      37.48800000      71.58500000 
C      18.72900000      38.56600000      70.78500000 
C      20.42100000      38.14000000      72.55500000 
H      16.27100000      35.30600000      73.48100000 
H      16.70200000      37.49100000      71.57300000 
H      18.45100000      36.99900000      73.40200000 
H      18.86700000      35.60500000      72.46900000 
H      20.00000000      36.86900000      70.89500000 
H      19.44500000      39.23500000      70.34000000 
H      18.13200000      38.14000000      69.99000000 
H      18.07700000      39.14400000      71.42700000 
H      21.15300000      38.74000000      72.03500000 
H      19.87400000      38.78400000      73.23100000 
H      20.94100000      37.39900000      73.15000000 
N      16.32900000      35.79800000      69.74000000 
C      16.11200000      34.85500000      68.66500000 
C      16.92800000      35.30000000      67.48200000 
O      17.11300000      36.50700000      67.26100000 
C      14.64900000      34.82400000      68.23100000 
C      13.80900000      33.72200000      68.83400000 
O      14.37900000      32.85100000      69.55300000 
O      12.58700000      33.73700000      68.55000000 
H      16.21000000      36.75300000      69.51400000 
H      16.40700000      33.87800000      68.99400000 
H      14.18200000      35.76400000      68.47200000 
H      14.57800000      34.70800000      67.16000000 
N      17.35900000      34.33900000      66.67200000 
C      18.01100000      34.61600000      65.41600000 
C      17.57200000      33.56600000      64.43400000 
O      17.54000000      32.38400000      64.81300000 
C      19.53200000      34.53200000      65.51700000 
C      20.22500000      35.82000000      65.22100000 
O      19.63700000      36.81400000      64.76900000 
N      21.54000000      35.81200000      65.44500000 
H      17.32700000      33.38600000      66.98100000 
H      17.72800000      35.59900000      65.09100000 
H      19.80000000      34.18400000      66.50100000 
H      19.92400000      33.80100000      64.82600000 
H      22.08500000      36.61600000      65.24100000 
H      22.00200000      35.01100000      65.80600000 
N      17.32700000      33.94000000      63.19100000 
C      16.90500000      33.01900000      62.16500000 
C      17.48600000      33.47200000      60.85100000 
O      17.43100000      34.67700000      60.54600000 
C      15.38800000      33.01900000      62.04100000 
O      14.88900000      32.68300000      63.33700000 
C      14.90400000      32.02400000      61.01400000 
H      17.36300000      34.90300000      62.94300000 
H      17.24500000      32.03400000      62.41600000 
H      15.07300000      34.02000000      61.78600000 
H      13.94800000      32.80600000      63.40200000 
H      13.82400000      32.00300000      61.00900000 
H      15.24400000      32.28600000      60.02400000 
H      15.27100000      31.04200000      61.26300000 
N      17.99800000      32.54200000      60.06300000 
C      18.60000000      32.85200000      58.78500000 
C      18.45100000      31.65900000      57.88900000 
O      18.61900000      30.51500000      58.34700000 
C      20.09000000      33.14200000      58.99600000 
C      20.95800000      33.02300000      57.75300000 
C      22.41300000      33.14700000      58.12700000 
O      23.14500000      32.12100000      57.98700000 
O      22.80700000      34.26400000      58.57100000 
H      18.14600000      31.61700000      60.42100000 
H      18.09800000      33.70200000      58.35900000 
H      20.17700000      34.13000000      59.41600000 
H      20.43500000      32.43600000      59.73700000 
H      20.81700000      32.06200000      57.28700000 
H      20.70300000      33.79400000      57.04000000 
N      18.21100000      31.89100000      56.60600000 
C      18.21700000      30.85500000      55.60900000 
C      18.86200000      31.42800000      54.38800000 
O      18.73100000      32.63500000      54.10500000 
C      16.79300000      30.37000000      55.31000000 
C      15.92700000      31.48300000      54.74900000 
C      16.77500000      29.16200000      54.38600000 
H      18.11600000      32.82500000      56.28000000 
H      18.79900000      30.02600000      55.96700000 
H      16.40300000      30.07400000      56.27300000 
H      14.89100000      31.17500000      54.72500000 
H      16.00300000      32.38100000      55.34300000 
H      16.22800000      31.72300000      53.73800000 
H      15.78700000      28.72600000      54.37400000 
H      17.02700000      29.44400000      53.37400000 
H      17.48000000      28.41000000      54.70500000 
N      19.52400000      30.58500000      53.61600000 
C      20.00300000      30.99500000      52.32400000 
C      20.20000000      29.75800000      51.50400000 
O      20.32800000      28.63600000      52.03000000 
C      21.28300000      31.81900000      52.39600000 
C      22.40100000      31.11600000      53.14100000 
C      23.67200000      31.94800000      53.14000000 
C      23.55000000      33.20700000      53.98700000 
N      24.53000000      33.17600000      55.12000000 
H      19.68400000      29.63800000      53.90300000 
H      19.24400000      31.59700000      51.85100000 
H      21.60300000      32.04300000      51.38700000 
H      21.03900000      32.75300000      52.87500000 
H      22.09200000      30.92800000      54.15700000 
H      22.59900000      30.15800000      52.68400000 
H      24.49800000      31.35200000      53.50400000 
H      23.91400000      32.21900000      52.12200000 
H      23.75500000      34.10100000      53.43000000 
H      22.57900000      33.29000000      54.43600000 
H      24.48000000      34.02300000      55.66000000 
H      24.33700000      32.41100000      55.74700000 
H      25.47000000      33.08300000      54.77100000 
H      18.85690550      27.34061270      73.63801837 
H      21.17748050      23.34515566      60.47518775 
H      21.12270016      25.59908068      52.76350569 
H      17.70719852      32.00711877      72.93736384 
H      14.49348849      37.64560542      76.66926543 
H      20.23169229      29.81922145      50.50637906 
