 464 
 
N               144.7780000000       70.9520000000      117.2450000000
C               146.1520000000       70.6560000000      116.8530000000
C               146.1480000000       70.2560000000      115.3760000000
O               146.9630000000       70.7600000000      114.5790000000
C               146.7310000000       69.5300000000      117.7500000000
H               144.5110000000       70.5010000000      117.9260000000
H               146.7190000000       71.4340000000      116.9710000000
H               147.6440000000       69.3400000000      117.4820000000
H               146.7190000000       69.8160000000      118.6770000000
H               146.1930000000       68.7290000000      117.6520000000
N               145.8570000000       72.8800000000      112.5980000000
C               147.1800000000       73.4020000000      112.2720000000
C               147.8720000000       72.4790000000      111.2650000000
O               148.3210000000       72.9340000000      110.2250000000
C               147.9970000000       73.5220000000      113.5600000000
C               148.1440000000       74.9490000000      114.1000000000
C               149.0220000000       75.8280000000      113.2090000000
O               150.2020000000       76.0440000000      113.5610000000
O               148.5240000000       76.2660000000      112.1530000000
H               145.7380000000       72.7140000000      113.4330000000
H               147.1010000000       74.2800000000      111.8660000000
H               147.5820000000       72.9730000000      114.2430000000
H               148.8820000000       73.1570000000      113.4020000000
H               147.2660000000       75.3520000000      114.1810000000
H               148.5250000000       74.9160000000      114.9920000000
N               147.9330000000       71.1860000000      111.5670000000
C               148.5900000000       70.2000000000      110.6800000000
C               147.9470000000       70.2650000000      109.2750000000
O               148.6470000000       70.2970000000      108.2820000000
C               148.4210000000       68.7330000000      111.2390000000
C               149.0540000000       68.6150000000      112.6430000000
C               149.0200000000       67.7400000000      110.3130000000
C               149.0610000000       67.2290000000      113.2180000000
H               147.6000000000       70.8480000000      112.2840000000
H               149.5350000000       70.4160000000      110.6360000000
H               147.4720000000       68.5440000000      111.3100000000
H               149.9680000000       68.9380000000      112.6000000000
H               148.5750000000       69.2010000000      113.2500000000
H               148.9050000000       66.8480000000      110.6760000000
H               148.5810000000       67.7970000000      109.4500000000
H               149.9660000000       67.9260000000      110.2070000000
H               149.4740000000       67.2450000000      114.0960000000
H               148.1500000000       66.9060000000      113.2950000000
H               149.5640000000       66.6390000000      112.6350000000
N               149.0600000000       73.2190000000      107.3190000000
C               150.4200000000       72.9330000000      106.9070000000
C               150.4210000000       72.0830000000      105.6510000000
O               151.0490000000       72.4410000000      104.6870000000
C               151.2060000000       72.2090000000      108.0030000000
C               151.4140000000       73.0690000000      109.2240000000
O               151.5960000000       74.2930000000      109.1540000000
N               151.4270000000       72.4240000000      110.3870000000
H               148.9130000000       73.0310000000      108.1450000000
H               150.8520000000       73.7840000000      106.7320000000
H               150.7330000000       71.4010000000      108.2560000000
H               152.0680000000       71.9350000000      107.6520000000
H               151.5640000000       72.8570000000      111.1170000000
H               151.2980000000       71.5740000000      110.4090000000
N               149.7510000000       70.9280000000      105.7120000000
C               149.6620000000       70.0090000000      104.5790000000
C               149.1030000000       70.6880000000      103.3480000000
O               149.6300000000       70.5290000000      102.2370000000
C               148.8360000000       68.7760000000      104.9760000000
C               149.5080000000       67.9790000000      106.1030000000
C               148.5790000000       66.8780000000      106.5850000000
C               150.8070000000       67.3760000000      105.5800000000
H               149.3350000000       70.6570000000      106.4150000000
H               150.5580000000       69.7180000000      104.3460000000
H               147.9520000000       69.0570000000      105.2610000000
H               148.7160000000       68.2040000000      104.2020000000
H               149.7020000000       68.5690000000      106.8480000000
H               149.0100000000       66.3790000000      107.2960000000
H               147.7570000000       67.2710000000      106.9180000000
H               148.3760000000       66.2800000000      105.8490000000
H               151.2370000000       66.8710000000      106.2870000000
H               150.6130000000       66.7870000000      104.8340000000
H               151.3980000000       68.0860000000      105.2850000000
N               160.1770000000       71.0590000000      103.8190000000
C               160.8510000000       70.4720000000      104.9650000000
C               160.3420000000       71.0890000000      106.2810000000
O               159.9900000000       70.3760000000      107.2170000000
C               162.4180000000       70.6370000000      104.8600000000
O               162.8300000000       70.2490000000      103.5230000000
C               163.1370000000       69.7340000000      105.8270000000
H               160.6890000000       71.4980000000      103.2860000000
H               160.6450000000       69.5240000000      104.9660000000
H               162.6380000000       71.5600000000      105.0620000000
H               162.5650000000       70.8240000000      102.9700000000
H               164.0950000000       69.8600000000      105.7370000000
H               162.8670000000       69.9500000000      106.7330000000
H               162.9130000000       68.8100000000      105.6350000000
N               160.2990000000       72.4160000000      106.3540000000
C               159.7840000000       73.1270000000      107.5150000000
C               158.4010000000       72.6150000000      107.7940000000
O               158.0440000000       72.3750000000      108.9570000000
C               159.7460000000       74.5870000000      107.2310000000
C               158.7100000000       75.4060000000      108.0330000000
C               158.8790000000       76.9150000000      107.8420000000
O               157.9170000000       77.6890000000      107.9580000000
N               160.1070000000       77.3410000000      107.5200000000
H               160.5710000000       72.9330000000      105.7230000000
H               160.3540000000       72.9810000000      108.2860000000
H               160.6270000000       74.9550000000      107.4040000000
H               159.5670000000       74.7100000000      106.2860000000
H               157.8160000000       75.1470000000      107.7600000000
H               158.7920000000       75.1910000000      108.9750000000
H               160.7520000000       76.7770000000      107.4480000000
H               160.2500000000       78.1780000000      107.3860000000
N               157.6220000000       72.4680000000      106.7190000000
C               156.2430000000       71.9580000000      106.8340000000
C               156.2100000000       70.6550000000      107.6010000000
O               155.7050000000       70.5870000000      108.7090000000
C               155.5660000000       71.7730000000      105.4750000000
C               155.0640000000       73.0590000000      104.8390000000
C               154.3350000000       73.9170000000      105.8360000000
N               154.7200000000       75.3260000000      105.7320000000
C               155.0650000000       76.0640000000      106.7880000000
N               155.0920000000       75.5390000000      108.0190000000
N               155.3320000000       77.3550000000      106.6030000000
H               157.8680000000       72.6560000000      105.9160000000
H               155.7440000000       72.6330000000      107.3210000000
H               156.1940000000       71.3500000000      104.8690000000
H               154.8180000000       71.1640000000      105.5790000000
H               155.8130000000       73.5530000000      104.4710000000
H               154.4730000000       72.8470000000      104.0990000000
H               153.3790000000       73.8330000000      105.6960000000
H               154.5200000000       73.5970000000      106.7330000000
H               154.7240000000       75.6940000000      104.9550000000
H               154.8850000000       74.7130000000      108.1390000000
H               155.3170000000       76.0280000000      108.6900000000
H               155.2800000000       77.6960000000      105.8150000000
H               155.5560000000       77.8480000000      107.2710000000
N               156.8260000000       69.6250000000      107.0150000000
C               156.9010000000       68.2870000000      107.6550000000
C               157.4600000000       68.3680000000      109.0670000000
O               157.0040000000       67.6530000000      109.9690000000
C               157.7670000000       67.3790000000      106.7670000000
C               157.3130000000       67.0460000000      105.3520000000
C               158.4030000000       66.2600000000      104.5750000000
C               156.0340000000       66.2280000000      105.3770000000
H               157.2100000000       69.6710000000      106.2470000000
H               156.0080000000       67.9180000000      107.7360000000
H               158.6430000000       67.7900000000      106.7000000000
H               157.8830000000       66.5390000000      107.2380000000
H               157.1520000000       67.8880000000      104.8980000000
H               158.0840000000       66.0640000000      103.6800000000
H               159.2110000000       66.7950000000      104.5200000000
H               158.5960000000       65.4300000000      105.0380000000
H               155.7610000000       66.0260000000      104.4680000000
H               156.1880000000       65.4010000000      105.8590000000
H               155.3350000000       66.7340000000      105.8190000000
N               158.4630000000       69.2140000000      109.2750000000
C               159.1080000000       69.3890000000      110.5970000000
C               158.1840000000       69.9730000000      111.6520000000
O               158.0700000000       69.4450000000      112.7410000000
C               160.4210000000       70.1810000000      110.4350000000
C               161.4710000000       69.4230000000      109.6450000000
O               161.2920000000       68.2510000000      109.3720000000
N               162.5450000000       70.1110000000      109.2770000000
H               158.7980000000       69.7100000000      108.6570000000
H               159.3410000000       68.4990000000      110.9060000000
H               160.2340000000       71.0230000000      109.9910000000
H               160.7750000000       70.3960000000      111.3120000000
H               163.1640000000       69.7300000000      108.8170000000
H               162.6220000000       70.9390000000      109.4970000000
N               157.4530000000       71.0430000000      111.3030000000
C               156.5190000000       71.7010000000      112.2020000000
C               155.4990000000       70.6200000000      112.6130000000
O               155.2130000000       70.4400000000      113.7930000000
C               155.8050000000       72.8500000000      111.4670000000
C               154.6100000000       73.4400000000      112.2490000000
C               155.0270000000       74.1540000000      113.5170000000
O               156.1410000000       74.7430000000      113.5340000000
O               154.2540000000       74.0970000000      114.4910000000
H               157.4930000000       71.4050000000      110.5240000000
H               156.9680000000       72.0800000000      112.9740000000
H               156.4450000000       73.5570000000      111.2890000000
H               155.4910000000       72.5280000000      110.6070000000
H               154.1300000000       74.0600000000      111.6780000000
H               153.9930000000       72.7260000000      112.4740000000
N               155.0360000000       69.8560000000      111.6140000000
C               154.0630000000       68.8080000000      111.8060000000
C               154.4990000000       67.8830000000      112.9070000000
O               153.7900000000       67.6400000000      113.8580000000
C               153.8520000000       67.9840000000      110.5370000000
C               153.3900000000       68.8680000000      109.3810000000
C               152.8000000000       66.9320000000      110.8260000000
C               153.0980000000       68.0980000000      108.0790000000
H               155.2910000000       69.9440000000      110.7980000000
H               153.2270000000       69.2410000000      112.0400000000
H               154.6900000000       67.5700000000      110.2790000000
H               152.5890000000       69.3440000000      109.6510000000
H               154.0710000000       69.5360000000      109.2050000000
H               152.6510000000       66.3970000000      110.0310000000
H               153.1040000000       66.3600000000      111.5480000000
H               151.9710000000       67.3650000000      111.0840000000
H               152.8110000000       68.7200000000      107.3920000000
H               153.9020000000       67.6410000000      107.7860000000
H               152.3970000000       67.4470000000      108.2380000000
N               155.7190000000       67.3740000000      112.7730000000
C               156.2970000000       66.4510000000      113.7700000000
C               156.3750000000       67.1560000000      115.1310000000
O               156.2100000000       66.5250000000      116.1910000000
C               157.7060000000       66.0320000000      113.3240000000
C               157.6730000000       65.1080000000      112.1160000000
O               157.0330000000       64.0370000000      112.2440000000
O               158.2910000000       65.4180000000      111.0600000000
H               156.2380000000       67.5470000000      112.1100000000
H               155.7370000000       65.6630000000      113.8470000000
H               158.2250000000       66.8230000000      113.1100000000
H               158.1570000000       65.5870000000      114.0580000000
N               156.7090000000       68.4490000000      115.1280000000
C               156.7960000000       69.1860000000      116.3410000000
C               155.4210000000       69.1240000000      117.0270000000
O               155.3120000000       68.7720000000      118.1950000000
C               157.2280000000       70.5950000000      116.0380000000
C               157.8000000000       71.3560000000      117.2330000000
C               158.0030000000       72.8560000000      116.9600000000
N               156.7630000000       73.5610000000      116.7540000000
C               156.0210000000       74.0760000000      117.7120000000
N               156.3860000000       73.9910000000      118.9730000000
N               154.8840000000       74.7370000000      117.4220000000
H               156.8860000000       68.9020000000      114.4190000000
H               157.4580000000       68.8120000000      116.9430000000
H               157.8960000000       70.5720000000      115.3350000000
H               156.4670000000       71.0860000000      115.6910000000
H               157.2040000000       71.2500000000      117.9910000000
H               158.6500000000       70.9610000000      117.4830000000
H               158.4760000000       73.2550000000      117.7070000000
H               158.5650000000       72.9640000000      116.1770000000
H               156.4870000000       73.6520000000      115.9450000000
H               157.1200000000       73.5940000000      119.1820000000
H               155.8910000000       74.3320000000      119.5880000000
H               154.6350000000       74.8260000000      116.6040000000
H               154.4070000000       75.0700000000      118.0550000000
N               154.3620000000       69.4320000000      116.2830000000
C               152.9870000000       69.4020000000      116.7980000000
C               152.6670000000       67.9970000000      117.3690000000
O               152.3160000000       67.8550000000      118.5530000000
C               151.9590000000       69.7400000000      115.6530000000
C               150.5310000000       69.7240000000      116.1960000000
C               152.2870000000       71.0690000000      115.0100000000
H               154.4180000000       69.6670000000      115.4580000000
H               152.9100000000       70.0670000000      117.5000000000
H               152.0270000000       69.0580000000      114.9670000000
H               149.9100000000       69.9340000000      115.4810000000
H               150.3290000000       68.8440000000      116.5510000000
H               150.4450000000       70.3840000000      116.9010000000
H               151.6430000000       71.2570000000      114.3090000000
H               152.2500000000       71.7700000000      115.6790000000
H               153.1780000000       71.0330000000      114.6290000000
N               152.9450000000       66.9670000000      116.5540000000
C               152.7060000000       65.5650000000      116.8840000000
C               153.0640000000       65.1600000000      118.2810000000
O               152.2070000000       64.7300000000      119.0620000000
C               153.4430000000       64.6530000000      115.8930000000
O               153.2260000000       63.2400000000      116.1070000000
H               153.2880000000       67.0760000000      115.7730000000
H               151.7440000000       65.4610000000      116.8170000000
H               153.1630000000       64.8790000000      114.9920000000
H               154.3940000000       64.8350000000      115.9490000000
H               152.5380000000       62.9960000000      115.6910000000
N               154.3630000000       65.1690000000      118.5710000000
C               154.7880000000       64.7690000000      119.9070000000
C               154.9700000000       65.8930000000      120.9410000000
O               155.6030000000       65.6580000000      121.9550000000
H               154.9930000000       65.3950000000      118.0300000000
H               154.1370000000       64.1400000000      120.2560000000
H               155.6290000000       64.2920000000      119.8270000000
N               154.4480000000       67.1060000000      120.6980000000
C               154.5700000000       68.2250000000      121.6260000000
C               153.2090000000       68.7070000000      122.1080000000
O               153.1140000000       69.1810000000      123.2470000000
C               155.4390000000       69.3600000000      121.0080000000
C               156.9300000000       68.9400000000      120.9520000000
C               157.8410000000       69.9340000000      120.3210000000
O               157.7060000000       71.1120000000      120.5060000000
N               158.8150000000       69.4430000000      119.5660000000
H               154.0110000000       67.2960000000      119.9820000000
H               155.0350000000       67.9170000000      122.4190000000
H               155.1220000000       69.5660000000      120.1150000000
H               155.3460000000       70.1690000000      121.5350000000
H               157.2380000000       68.7680000000      121.8560000000
H               156.9980000000       68.1040000000      120.4650000000
H               158.8850000000       68.5930000000      119.4530000000
H               159.3770000000       69.9740000000      119.1900000000
N               152.1730000000       68.6620000000      121.2770000000
C               150.8390000000       69.0410000000      121.7250000000
C               150.3580000000       68.0180000000      122.7660000000
O               150.5590000000       66.8120000000      122.5940000000
C               149.8350000000       68.9920000000      120.5510000000
O               150.2210000000       69.9140000000      119.5090000000
C               148.4370000000       69.2700000000      121.0520000000
H               152.2210000000       68.4160000000      120.4540000000
H               150.8830000000       69.9390000000      122.0900000000
H               149.8440000000       68.1020000000      120.1660000000
H               150.8200000000       69.5650000000      119.0340000000
H               147.8140000000       69.2370000000      120.3090000000
H               148.1900000000       68.6020000000      121.7100000000
H               148.4080000000       70.1500000000      121.4590000000
N               149.7570000000       68.4850000000      123.8500000000
C               149.2640000000       67.5760000000      124.8610000000
C               148.1460000000       68.1820000000      125.6660000000
O               147.7920000000       69.3480000000      125.4880000000
C               150.3990000000       67.1710000000      125.8400000000
C               151.1090000000       68.2860000000      126.6130000000
C               150.2220000000       68.9770000000      127.6760000000
O               149.7090000000       68.3410000000      128.5790000000
N               150.0680000000       70.2860000000      127.5610000000
H               149.6270000000       69.3190000000      124.0160000000
H               148.9310000000       66.7970000000      124.3890000000
H               150.0270000000       66.5510000000      126.4860000000
H               151.0700000000       66.6860000000      125.3340000000
H               151.8920000000       67.9160000000      127.0490000000
H               151.4230000000       68.9540000000      125.9840000000
H               150.4430000000       70.7080000000      126.9120000000
H               149.5930000000       70.7150000000      128.1350000000
N               150.3080000000       63.3680000000      125.6060000000
C               150.5900000000       63.8720000000      124.2560000000
C               149.5520000000       63.3010000000      123.2990000000
O               149.6880000000       62.1660000000      122.8550000000
C               151.9930000000       63.5300000000      123.8130000000
C               153.0880000000       64.1590000000      124.6960000000
C               153.2040000000       65.6570000000      124.5210000000
C               154.2260000000       66.2170000000      125.4620000000
N               153.9350000000       65.9930000000      126.9060000000
H               150.8240000000       62.7290000000      125.8610000000
H               150.5330000000       64.8400000000      124.2580000000
H               152.0990000000       62.5660000000      123.8160000000
H               152.1160000000       63.8260000000      122.8980000000
H               152.8990000000       63.9610000000      125.6270000000
H               153.9410000000       63.7470000000      124.4860000000
H               153.4510000000       65.8630000000      123.6060000000
H               152.3440000000       66.0750000000      124.6830000000
H               155.0880000000       65.8240000000      125.2540000000
H               154.3040000000       67.1710000000      125.3050000000
H               154.0220000000       66.7600000000      127.3490000000
H               153.1030000000       65.6900000000      126.9980000000
H               154.5060000000       65.3950000000      127.2350000000
N               148.6760000000       63.5560000000      120.1540000000
C               149.0880000000       63.0790000000      118.8580000000
C               150.2500000000       62.1060000000      118.9090000000
O               150.6480000000       61.5820000000      117.8710000000
C               149.4850000000       64.2780000000      117.9870000000
C               148.3700000000       65.1500000000      117.3920000000
C               148.9830000000       66.2780000000      116.5460000000
C               147.4990000000       64.2630000000      116.4720000000
H               149.1140000000       64.2420000000      120.4320000000
H               148.3330000000       62.5980000000      118.4850000000
H               150.0570000000       64.8530000000      118.5190000000
H               150.0230000000       63.9440000000      117.2520000000
H               147.8400000000       65.5350000000      118.1070000000
H               148.2740000000       66.8250000000      116.1730000000
H               149.5550000000       66.8270000000      117.1050000000
H               149.5070000000       65.8940000000      115.8260000000
H               146.7880000000       64.7970000000      116.0860000000
H               148.0480000000       63.8950000000      115.7620000000
H               147.1140000000       63.5390000000      116.9900000000
N               150.7380000000       61.7620000000      120.1120000000
C               151.8620000000       60.8620000000      120.2710000000
C               151.6290000000       59.3780000000      120.0280000000
O               152.5380000000       58.6880000000      119.5910000000
C               152.4600000000       61.0470000000      121.6350000000
H               150.4160000000       62.0520000000      120.8550000000
H               152.4590000000       61.1220000000      119.5520000000
H               153.2130000000       60.4450000000      121.7430000000
H               152.7620000000       61.9630000000      121.7340000000
H               151.7920000000       60.8530000000      122.3110000000
N               148.2810000000       58.5370000000      116.5300000000
C               149.5880000000       59.1600000000      116.3510000000
C               149.7280000000       59.6270000000      114.9220000000
O               149.7670000000       58.8070000000      113.9970000000
C               150.6740000000       58.1580000000      116.6870000000
C               152.0850000000       58.6670000000      116.4780000000
C               153.1030000000       57.5220000000      116.3740000000
O               153.2100000000       56.8930000000      115.3080000000
N               153.7990000000       57.2090000000      117.4660000000
H               148.3100000000       57.6820000000      116.6150000000
H               149.6730000000       59.9250000000      116.9420000000
H               150.5740000000       57.8880000000      117.6130000000
H               150.5450000000       57.3640000000      116.1450000000
H               152.1180000000       59.2020000000      115.6690000000
H               152.3300000000       59.2500000000      117.2140000000
H               153.6980000000       57.6680000000      118.1860000000
H               154.3490000000       56.5480000000      117.4510000000
N               149.6800000000       60.9380000000      114.7240000000
C               149.8350000000       61.4990000000      113.4090000000
C               151.1980000000       62.1880000000      113.3730000000
O               151.5720000000       62.9100000000      114.2920000000
C               148.7190000000       62.5210000000      113.1030000000
C               147.3450000000       61.8600000000      113.1700000000
C               148.9170000000       63.1580000000      111.7030000000
C               147.1950000000       60.6560000000      112.2100000000
H               149.5570000000       61.5170000000      115.3480000000
H               149.7750000000       60.8000000000      112.7390000000
H               148.7700000000       63.2180000000      113.7760000000
H               147.1800000000       61.5630000000      114.0790000000
H               146.6660000000       62.5200000000      112.9600000000
H               148.2050000000       63.7950000000      111.5340000000
H               149.7730000000       63.6140000000      111.6730000000
H               148.8970000000       62.4640000000      111.0260000000
H               146.3050000000       60.2800000000      112.2980000000
H               147.3320000000       60.9510000000      111.2960000000
H               147.8540000000       59.9800000000      112.4330000000
N               151.9020000000       61.9610000000      112.2730000000
C               153.2450000000       62.4990000000      112.0190000000
C               153.6670000000       62.1750000000      110.6040000000
O               153.0200000000       61.3880000000      109.9280000000
C               154.2510000000       61.8890000000      113.0100000000
C               154.4870000000       60.4200000000      112.7660000000
O               155.2840000000       60.0370000000      111.9040000000
N               153.8050000000       59.5790000000      113.5360000000
H               151.6070000000       61.4740000000      111.6280000000
H               153.2260000000       63.4620000000      112.1360000000
H               155.0940000000       62.3640000000      112.9430000000
H               153.9250000000       62.0150000000      113.9150000000
H               153.9100000000       58.7300000000      113.4440000000
H               153.2580000000       59.8830000000      114.1260000000
N               154.7140000000       62.8820000000      110.1260000000
C               155.2200000000       62.6990000000      108.7670000000
C               155.5430000000       61.2620000000      108.3880000000
O               155.4860000000       60.9060000000      107.2180000000
C               156.4590000000       63.5950000000      108.5470000000
O               156.1320000000       64.9790000000      108.5940000000
H               155.1400000000       63.4730000000      110.5840000000
H               154.4920000000       62.9600000000      108.1810000000
H               157.1240000000       63.3980000000      109.2250000000
H               156.8590000000       63.3870000000      107.6880000000
H               156.7350000000       65.3960000000      109.0050000000
N               151.8830000000       59.4100000000      108.2320000000
C               151.2690000000       60.0650000000      107.0690000000
C               151.9780000000       59.7070000000      105.7720000000
O               151.4900000000       60.0310000000      104.6880000000
C               151.2760000000       61.5950000000      107.2350000000
C               150.2620000000       62.2070000000      108.2220000000
C               150.3940000000       63.7090000000      108.2290000000
C               148.8400000000       61.8360000000      107.8430000000
H               152.2330000000       59.9620000000      108.7910000000
H               150.3550000000       59.7430000000      107.0210000000
H               152.1650000000       61.8620000000      107.5150000000
H               151.1220000000       61.9920000000      106.3630000000
H               150.4530000000       61.8530000000      109.1050000000
H               149.7540000000       64.0870000000      108.8520000000
H               151.2920000000       63.9540000000      108.5010000000
H               150.2210000000       64.0530000000      107.3390000000
H               148.2220000000       62.2320000000      108.4770000000
H               148.6450000000       62.1680000000      106.9530000000
H               148.7430000000       60.8710000000      107.8570000000
H               144.7068156861       71.8242157802      117.4551723725
H               145.4870954360       69.5840777133      115.0417462072
H               145.2299584199       73.4789620897      112.3570367831
H               146.9515598933       70.2808514024      109.1809376434
H               148.8890342228       74.0950324558      107.2035104360
H               148.2970085308       71.2751127085      103.4233420138
H               159.7918564277       70.4081178512      103.3311302867
H               147.6764921204       67.6359457606      126.3598206675
H               150.4029089875       64.0357654815      126.2018871922
H               148.7605599555       63.8514776028      123.0332989183
H               147.8076179158       63.7907480451      120.1256114261
H               150.7362946153       58.9730736017      120.2257668025
H               147.8912399567       58.8644134579      117.2722179843
H               155.8028924874       60.6046798044      109.0953797110
H               151.2582615272       58.9375432638      108.6752679472
H               152.8435608965       59.2068163520      105.7969129019
