 405 
 
N                62.6097843644       33.2638874944       24.6758776467
C                63.1355208351       32.3810134555       23.6505830091
C                62.1590527929       32.3070721181       22.4799663734
O                62.5385148984       32.4179790622       21.3164528974
C                63.4043489264       30.9694914366       24.2023942205
O                64.4748448011       30.9349082578       25.1031630058
H                62.5332880832       32.8930543145       25.6179645723
H                64.0733868857       32.7908954450       23.2567560324
H                62.4938781590       30.5880174251       24.6782779038
H                63.6752526933       30.3131695950       23.3718126585
H                64.1777074590       31.3463976395       25.9280844189
N                60.8927857771       32.0630926615       22.8048585461
C                59.8739457720       32.0089870872       21.7876361357
C                59.5818465231       33.3730203492       21.2081927898
O                59.1546184920       33.4064313824       20.0575092730
C                58.5338680852       31.4688338963       22.2671662535
C                58.3729239995       29.9431056598       22.2287899063
C                57.5664971904       29.4816616395       21.0235133728
C                59.6548591326       29.1234106373       22.3339187748
H                60.5927546517       31.8762372885       23.7584821171
H                60.2132726155       31.3837906479       20.9503052437
H                58.3866875729       31.8381698245       23.2774594856
H                57.7616252401       31.9103938947       21.6330018217
H                57.7977063951       29.6986967540       23.1117225326
H                57.2801867473       28.4462062657       21.1720503814
H                56.6628791632       30.0741085347       20.9066963603
H                58.1424996259       29.5475918457       20.1079036076
H                59.3697611128       28.0815521574       22.4647010507
H                60.2676210844       29.1911095989       21.4380507261
H                60.2393466578       29.4318618587       23.1956184806
N                59.7416579254       34.4787375264       21.9306812268
C                59.5831954930       35.7869943001       21.3264427084
C                60.7683065730       36.0901373137       20.3912986363
O                60.7759881220       37.0586846161       19.6456260681
C                59.5532565455       36.9030782800       22.3626944804
H                59.7824724700       34.4505214695       22.9419506762
H                58.6447085314       35.8102738190       20.7596504547
H                59.3254945723       37.8393909506       21.8588899523
H                58.8021948280       36.6972429334       23.1178011818
H                60.5351026306       36.9758820760       22.8218408201
N                61.7709537247       35.2137419932       20.5176807062
C                63.0561181441       35.3365731895       19.8755249617
C                63.1736663649       34.3696626949       18.6766415107
O                63.9337759539       34.5916313788       17.7503940391
C                64.1966345714       35.0598955712       20.8587527553
C                64.2312560733       35.8368721335       22.1543335153
C                65.0269469240       35.3199609474       23.1744837007
C                63.5274142077       36.9999881557       22.4286706501
C                65.2972792579       36.0201690738       24.3307913912
C                63.7099639982       37.6479566560       23.6430075304
C                64.6569102131       37.2234417043       24.5555166128
H                61.7429046506       34.6921968362       21.3904372667
H                63.1626971737       36.3339349973       19.4337723990
H                64.1786040719       33.9968710153       21.1078312726
H                65.1217953439       35.2524327761       20.3053858129
H                65.4414201803       34.3341995797       23.0725502985
H                62.8015404881       37.3770178057       21.7237971495
H                65.9703952053       35.6019051030       25.0629632956
H                63.0915294775       38.4903486846       23.9050233706
H                64.8508465872       37.7852779755       25.4563384197
N                62.3043776251       33.3454637908       18.7351591833
C                62.0639700684       32.3163536049       17.7380689239
C                60.8108550032       32.7001597728       16.9086154272
O                60.8435595318       32.6287696607       15.6760663555
C                61.9825952522       30.9454907955       18.4517419977
C                60.9725871593       29.9948440677       17.8741352817
C                61.3741280995       28.9200366457       17.0889049932
C                59.6182251897       30.1608877950       18.1378448525
C                60.4508055513       28.0219493331       16.5871084279
C                58.6840696146       29.2811801651       17.6276933857
C                59.0939857384       28.1962032975       16.8606379800
O                58.2036357866       27.2952341490       16.3798932533
H                61.9344934175       33.1460436983       19.6589489232
H                62.8899404662       32.2942234093       17.0163224384
H                62.9689058135       30.4803853361       18.4315638018
H                61.7474879505       31.1466096278       19.4977092190
H                62.4232672916       28.7732885400       16.8718196918
H                59.2843020267       30.9822166333       18.7534211853
H                60.7507801210       27.1944383859       15.9587029068
H                57.6303926072       29.4062858206       17.8281744455
H                57.3586885103       27.4262953462       16.8439574534
N                59.7808266715       33.2035205682       17.5775552658
C                58.6255193227       33.8720288966       16.9994121386
C                59.0106252264       34.8394962745       15.8990186897
O                58.2684889136       34.9333729752       14.9107337818
C                57.8253577458       34.7244451525       18.0200439194
C                56.4360937272       34.1920248022       18.4207209133
C                56.4415774557       32.7899732519       19.0195822624
C                55.8359448446       35.1688249344       19.4341435464
H                59.7644742379       33.1778696699       18.5987529905
H                57.9394759038       33.1475076711       16.5412922802
H                58.4394128997       34.8687050430       18.9007950948
H                57.6594517980       35.7107636926       17.5822449858
H                55.8397790064       34.1924312446       17.5075824313
H                55.4343932598       32.4718480336       19.2816316701
H                56.8779795744       32.0692942382       18.3350172712
H                57.0356652016       32.7980805637       19.9241923461
H                54.8029802327       34.9233465536       19.6596747059
H                56.4056292356       35.1128605719       20.3577361615
H                55.8800061982       36.1871400380       19.0598102635
N                60.0205545655       35.7002597616       16.0574576093
C                60.2253060791       36.6811718500       15.0071297650
C                60.5418958806       36.0026044571       13.6702970243
O                60.3110096582       36.5404139781       12.5992952388
C                61.4054188664       37.5577258371       15.4545080181
C                61.8971504380       36.9667742919       16.7820491882
C                61.1631355950       35.6370878004       16.9415724137
H                59.3126060318       37.2684843282       14.8631000829
H                62.1747727992       37.5473885996       14.6838665505
H                61.0836252805       38.5904649222       15.5850882877
H                62.9694844455       36.7736479640       16.7910974501
H                61.6645694478       37.6502050793       17.5965553330
H                61.8322934522       34.8338878823       16.6208268343
H                60.8562181057       35.4605289427       17.9693967024
N                61.1758934837       34.8280537988       13.8025934965
C                61.6241798326       34.0079677952       12.7006409640
C                60.4731373142       33.1861906199       12.1131518383
O                60.1651513456       33.2593853727       10.9294957740
C                62.7333898200       33.0929362907       13.2039541057
H                61.1731221365       34.3474121940       14.6924403846
H                61.9748258476       34.6768271761       11.9066972716
H                63.1367639472       32.4998266381       12.3896158199
H                63.5172527440       33.6986728868       13.6442109134
H                62.3506062890       32.4212003626       13.9680344164
N                59.8361214096       32.3997131079       12.9888455003
C                58.7817910694       31.5076306692       12.5560688106
C                57.5370910488       32.2958872279       12.1595671626
O                56.7945669571       31.9364154051       11.2558904097
C                58.4861335387       30.4712118724       13.6429564985
C                59.4976616931       29.3292955019       13.5973988052
C                58.9173138371       28.0138705273       12.9694602395
O                59.7496398296       27.1045133504       12.7684325469
O                57.6954985924       27.9656484841       12.7338421885
H                60.1358392772       32.3418867418       13.9582591837
H                59.0933102098       30.9852051520       11.6410312425
H                58.4866857192       30.9601782420       14.6200476320
H                57.4982377726       30.0339156270       13.4629231468
H                60.3752172192       29.6024609752       13.0096042531
H                59.8534745678       29.0539755476       14.5898826579
N                57.3128601763       33.4010996391       12.8843073237
C                56.0808771624       34.1452816733       12.7669369170
C                56.3129322770       35.6597551406       12.7288971702
O                55.7231058456       36.4283625089       13.4706163835
C                55.1326736941       33.7506485520       13.8997383863
O                55.6292300126       33.9970459362       15.1908456860
H                57.9357915756       33.6928086325       13.6343884444
H                55.6103921629       33.8428861702       11.8214062743
H                54.1984434593       34.3019640296       13.7359559463
H                54.9546101349       32.6718848627       13.7967456329
H                56.3514552838       34.6458891096       15.1504621872
N                57.1240983128       36.0694996013       11.7450688912
C                57.4899597630       37.4603311008       11.6006851968
C                56.3061312379       38.4009286195       11.3963249600
O                56.4127998425       39.5993597969       11.5839573680
H                57.6220559220       35.3855499733       11.1969736207
H                58.0515365315       37.8063366341       12.4754159684
H                58.1443857953       37.5668945442       10.7350518520
N                55.1537526509       37.8306003307       10.9909623239
C                54.0212316385       38.6346227739       10.5752927017
C                53.0768120207       38.9797933987       11.7253822574
O                52.2057668593       39.8327658736       11.5966001352
C                53.2761561583       37.9427714442        9.4251752248
C                52.2900454823       38.8514101629        8.7093600627
C                51.6050189158       38.1473237146        7.4933506730
O                51.9227792126       36.9654860633        7.2558673738
O                50.7861351996       38.8404275516        6.8547843708
H                55.1415333448       36.8545669228       10.7348489615
H                54.4059466602       39.5988699531       10.2163246905
H                54.0106886266       37.6060559742        8.6897595951
H                52.7312864904       37.0639325368        9.7770666386
H                51.4960757847       39.1864806056        9.3787998887
H                52.7879857348       39.7437547978        8.3227452509
N                53.2563923856       38.3106913642       12.8716126919
C                52.3836841691       38.5539168373       14.0090293586
C                53.1013450707       39.4133400454       15.0576608887
O                53.4442189073       39.0080216484       16.1557555830
C                51.8049654301       37.2299906289       14.5274039136
C                52.8361824452       36.3012367406       15.1608579710
C                52.2055640605       35.0232331387       15.7302751985
C                53.0986404248       34.4331135366       16.8315386423
N                53.5547457879       33.0511448447       16.5111670507
H                54.0650408335       37.7098596930       12.9892591312
H                51.5637764274       39.1649362092       13.6059848583
H                51.0315194721       37.4600733415       15.2596328119
H                51.3312147951       36.7453197433       13.6714887884
H                53.5979404202       36.0623303604       14.4248788794
H                53.3252283263       36.8420492762       15.9632473051
H                51.2173125478       35.2644880913       16.1181660721
H                52.0530170215       34.3037276868       14.9265212030
H                53.9773262849       35.0678503598       16.9348667372
H                52.5872704661       34.3914089569       17.7926607388
H                54.4852440788       32.8651811883       16.9214354025
H                52.8786109459       32.3589328408       16.8679859159
H                53.6571900308       32.9325610465       15.4944551016
N                53.3122483453       40.6969727942       14.7054159718
C                54.1080827788       41.5129408993       15.5986429513
C                53.2426076525       42.2802930946       16.6008562590
O                53.6883116241       42.6091164564       17.6896082582
C                55.0201732233       42.5020394992       14.8792103032
C                56.0356164305       41.8088472556       13.9882308967
S                57.5469799989       42.8205600945       13.6768275643
C                56.8731526142       44.5160797266       13.6860367430
H                53.1504465429       41.0122904175       13.7608471773
H                54.7224409497       40.8214236691       16.1946304144
H                54.4289616107       43.1943508810       14.2806474209
H                55.5479351953       43.0673286993       15.6474781418
H                56.4446881966       40.9214302441       14.4679006763
H                55.6238878803       41.5191694648       13.0211914000
H                57.6254803632       45.1198684862       13.1869306889
H                55.9477537705       44.5610253313       13.1255285992
H                56.7447082142       44.8542540522       14.7099221899
N                50.7701908975       40.7922020981       17.7672509143
C                50.6356186582       39.6793542798       18.6849080370
C                51.8086603709       39.6743723556       19.6515014653
O                51.6546943342       39.4699160813       20.8557005582
C                50.6279979697       38.3467060921       17.8753022012
O                49.4544296012       37.6113859273       18.0740105667
C                51.8034414243       37.4198147937       18.1629053817
H                50.5110815345       40.6406761737       16.7996186427
H                49.7248103793       39.8072220242       19.2933185712
H                50.6125688640       38.6333450183       16.8181296088
H                49.5264474165       37.1617527134       18.9267713227
H                51.5372458012       36.4542978704       17.7507333101
H                52.7129238817       37.7629102902       17.6907549408
H                51.9523871169       37.3139976022       19.2335305724
N                53.0145412311       39.8086206025       19.1099827413
C                54.1810347396       39.6772219235       19.9611917409
C                54.1595464063       40.8257023914       20.9677503286
O                54.4842864002       40.6629290784       22.1389527883
C                55.4446768439       39.6331416934       19.1185272487
H                53.1554649699       39.8641513514       18.1080394860
H                54.0753683339       38.7598204651       20.5565216699
H                56.3052475513       39.4436021432       19.7511418305
H                55.3657576882       38.8341932421       18.3858335539
H                55.5946511840       40.5776128760       18.6017928618
N                52.0466622453       39.9525095937       23.8166153753
C                52.9158846920       39.2150019924       24.7124443406
C                53.7689789862       40.1798426989       25.5346896102
O                53.9170614844       40.0076760968       26.7450282976
C                53.8425761672       38.2185145450       23.9912484878
C                54.5798692174       37.3665084473       25.0232111800
C                53.0680592755       37.2937858328       23.0631072350
H                52.1606416789       39.8545782107       22.8157050097
H                52.2833091683       38.6769995450       25.4301138632
H                54.5672364656       38.7998552558       23.4175117864
H                55.2378484882       36.6642616201       24.5186738221
H                55.1720965334       37.9900915241       25.6846609626
H                53.8679600171       36.8073135494       25.6274624919
H                53.7601327255       36.6435146450       22.5359484948
H                52.4060168405       36.6735873375       23.6573526576
H                52.4838368914       37.8512463392       22.3389809163
N                69.1396849515       36.6279000414       11.7760026893
C                68.2255347134       35.8513346124       12.6158818523
C                68.9546517315       34.7178578871       13.3417313927
O                68.8431656149       34.6287976334       14.5613131083
C                66.9667137950       35.3142402185       11.8730685593
C                66.2501137998       34.2023887372       12.6665167800
C                67.2666658033       34.7728030168       10.4746530725
C                65.8683822905       34.5390027091       14.1046656932
H                68.7397724696       37.2710402327       11.1080651773
H                67.8647074970       36.5048710831       13.4264194223
H                66.2684249267       36.1540130212       11.7902354063
H                65.3370437496       33.9532561805       12.1206985230
H                66.8820666473       33.3125622848       12.6751007336
H                66.3531099676       34.4243391078        9.9968090078
H                67.7090670217       35.5262118845        9.8328484358
H                67.9516149268       33.9321004643       10.5341479639
H                65.3734296567       33.6812775680       14.5545924961
H                66.7442198231       34.7479752005       14.7074118196
H                65.2022546018       35.3960378482       14.1562957557
N                46.5116530030       34.6434550852       20.4989698359
C                47.5840219660       35.0501971743       21.3881013425
C                46.9837752252       35.8316725331       22.5517779753
O                47.3179485233       35.6224924245       23.7107276423
C                48.6725187081       35.8460335277       20.6364340498
C                50.0515798527       35.1980072922       20.8133628251
C                48.7135452068       37.3217427074       21.0441593706
C                50.5654491005       35.3562855319       22.2356821447
H                46.6745828718       34.6659291513       19.4983520125
H                48.0189921354       34.1483318826       21.8282756616
H                48.3935496233       35.7855175498       19.5811546624
H                49.9861720289       34.1480097633       20.5294158718
H                50.7641696007       35.6857632229       20.1481082763
H                49.6488423382       37.7805225739       20.7439207741
H                47.8991566253       37.8730504815       20.5871945628
H                48.6430025537       37.4543018801       22.1177461729
H                51.5474445836       34.9091081186       22.3474334622
H                50.6274245266       36.4113066616       22.4701705100
H                49.8946179318       34.9085713169       22.9606671791
N                50.4484092265       26.6825662090       21.0476069680
C                50.7861600411       27.9595599941       20.4556058731
C                51.8936203821       27.6761438687       19.4612774121
O                51.8446077014       28.1179445179       18.3177633344
C                51.1846655544       29.0806335313       21.4359610859
C                52.6464618464       28.9447826881       21.8578301425
C                50.2099340057       29.0807925236       22.5977104884
C                53.1820063179       30.0833692953       22.7092033484
H                50.8109825761       26.4590416768       21.9646243882
H                49.9044952227       28.2983836836       19.8961541006
H                51.0763485850       30.0193990882       20.8811124976
H                52.7786964821       27.9976669246       22.3779394830
H                53.2499756676       28.9408104450       20.9507317142
H                50.5061035797       29.8082964552       23.3412662166
H                49.2194260758       29.3043536621       22.2222768380
H                50.1895750622       28.1112061381       23.0643067270
H                54.2259156633       29.8840784843       22.9336905787
H                53.1372663350       31.0104484617       22.1469334224
H                52.6309285966       30.1939510554       23.6389105020
N                52.8693939042       26.8332933774       19.8377258066
C                53.9058915068       26.5601031515       18.8630690012
C                53.2189399036       25.9638828544       17.6384749481
O                53.4696874604       26.3303054919       16.4947876763
C                54.9817856575       25.6387885815       19.4319089061
C                56.3007482820       26.3952365311       19.5349608510
O                56.5814964877       27.2933730383       18.7587162867
N                57.1210332411       25.9830612306       20.5066573647
H                53.0817052229       26.6339240246       20.8120446140
H                54.3772915311       27.4977863262       18.5291401850
H                54.6700717082       25.2445301746       20.3986005384
H                55.1436984670       24.8090410214       18.7424916337
H                58.0322579769       26.4103450053       20.5917374579
H                56.8553756592       25.2445651217       21.1324014114
N                50.1196992974       26.4379943842       16.8502020088
C                49.2701876074       27.4329619319       16.2185749722
C                50.0738689570       28.2256548652       15.1742744596
O                49.5880988829       28.6827548795       14.1630550068
C                48.8243013081       28.5139084494       17.2204331298
C                47.5718145664       28.2109608134       17.9635148673
N                47.5090651046       28.2536577775       19.3237921033
C                46.3248545054       27.9523378339       17.4554554466
C                46.2611974279       28.0102201475       19.6259988050
N                45.4963643380       27.8311852310       18.5306796458
H                50.0691815993       26.4386747818       17.8728260661
H                48.3830825363       27.0018166293       15.7362929119
H                49.6291818219       28.6623846143       17.9359541486
H                48.6704753555       29.4360593644       16.6464630908
H                46.0001496440       27.8454735181       16.4400512973
H                45.8729387548       27.9411940765       20.6203500743
H                44.4930312199       27.6864214327       18.5356684668
N                51.3042515777       28.4794914109       15.6546656986
C                52.3268870154       29.2697399957       15.0102687431
C                52.7931585299       28.5479289571       13.7222124371
O                52.9701391175       29.1284613558       12.6663582717
C                53.5221814777       29.4437247571       15.9573309821
C                53.2220818114       30.0746035678       17.2800208075
N                52.0661243593       30.7530545506       17.6080002593
C                54.0444784940       30.2257720364       18.3664044766
C                52.2374256385       31.2222599537       18.8820977772
N                53.4193495379       30.9394911404       19.3419706563
H                51.5529900194       27.9904744013       16.5139161718
H                51.9024103712       30.2309328425       14.6918122673
H                53.9676779382       28.4623673870       16.1352797854
H                54.2881743986       30.0219522660       15.4328194275
H                51.1863464698       30.6497813651       17.1252386008
H                55.0456867624       29.8696111618       18.4916275926
H                51.4998192845       31.8009388202       19.3994520832
N                52.9732588240       27.2424351472       13.9615417470
C                53.2470477423       26.1826507880       13.0136033924
C                52.0052531327       25.9380547963       12.1399788626
O                52.1360051012       25.7325525239       10.9301139027
C                53.7709192880       24.9435009843       13.7954251859
C                53.2198230312       23.5631089660       13.4210116465
C                53.5995495601       23.0719960293       12.0082310661
N                52.4186856561       23.0052673718       11.1676612830
C                52.0290683024       22.0674287334       10.3168092056
N                52.6726520890       20.9168958323       10.1717216898
N                50.8922543137       22.2741806199        9.6358077744
H                52.8609766484       26.9475623290       14.9267921733
H                54.0151618382       26.5175546689       12.3056718388
H                54.8585227700       24.9367709194       13.7195155617
H                53.5473883194       25.1165153443       14.8480497454
H                53.6006166423       22.8492202630       14.1549798253
H                52.1339415381       23.5866291290       13.5195379823
H                54.2986066972       23.7764273009       11.5498656788
H                54.0804334722       22.0965515460       12.0651797753
H                51.9975124908       23.9226982823       11.0439209715
H                53.5096516906       20.7346029324       10.7017282354
H                52.3233856424       20.1992084537        9.5566886643
H                50.4570055292       23.1832135823        9.6709687302
H                50.6509294014       21.6937812825        8.8479952297
N                50.8412037562       25.8324508911       12.7712690604
C                49.5809793591       25.6675265617       12.0880456370
C                49.3671401624       26.7541381269       10.9652746958
O                48.5994382800       26.3908720271       10.0536502737
C                48.3703604453       25.7362030465       13.0331718406
O                47.5572038177       24.5966575273       12.9542487260
O                49.9338044072       27.8444721086       11.1130401788
H                50.7750384831       26.0499931142       13.7544636688
H                49.5623688296       24.6950869966       11.5806736104
H                48.7157140758       25.9072496658       14.0534460201
H                47.7328081171       26.5869807538       12.7734154115
H                48.0025711592       23.8431253448       13.3677202338
H                63.1379114833       33.9891095342       24.7475347423
H                52.2997868269       42.5185516370       16.3677859737
H                50.2534398012       41.4747455585       18.0449246962
H                53.8753278085       41.7395291476       20.6776805985
H                51.1912731407       39.7153275058       23.9651217282
H                54.2122198992       40.9583986493       25.0904057762
H                69.6706190652       37.1337109106       12.2977922366
H                69.5090849883       34.0670695203       12.8230038482
H                46.2835846059       33.7905779349       20.6738565787
H                46.2970395913       36.5376549317       22.3786219132
H                49.5549579817       26.6190388568       21.1354087253
H                52.5336030244       25.2443125271       17.7504209443
H                49.8782291712       25.6167401367       16.5722926005
