 556 
 
N                53.2753798949       42.7779218792       32.5222293294
C                52.3805950954       42.8359445150       33.6597180153
C                52.7774107806       41.7404305704       34.6531231937
O                52.8255302111       41.9512870533       35.8607559077
C                50.8993482966       42.6487098097       33.2862608567
C                50.0437144301       42.8106018347       34.5415010147
C                50.4482598168       43.6790717637       32.2610884775
H                52.8916828867       42.8014730310       31.5839155590
H                52.5108812866       43.8020277114       34.1739665994
H                50.7795411984       41.6423882603       32.8748835581
H                48.9873260689       42.7608918471       34.2910542482
H                50.2625289188       42.0472252800       35.2816175503
H                50.2465461654       43.7821144865       34.9874470592
H                49.3857872921       43.5640960978       32.0604398689
H                50.6239928666       44.6695471605       32.6647141087
H                50.9883325985       43.5859541164       31.3260032218
N                52.9841331668       40.5405001775       34.1078288433
C                53.1972080501       39.3528688661       34.9132566990
C                54.4147968097       39.5740703014       35.8089612491
O                54.3991772861       39.3183608547       37.0163454719
C                53.3983569018       38.1296458556       34.0120010927
C                52.2400545308       37.8183804435       33.0902004858
C                52.3611496969       36.7481307152       32.2061538282
C                51.0789189716       38.5775843215       33.0411331785
C                51.3591370633       36.4531783044       31.2997155570
C                50.0965365823       38.3124696406       32.1025980017
C                50.2203596410       37.2391491569       31.2410969924
H                52.8830163817       40.3930138218       33.1074534603
H                52.3414234907       39.1950535577       35.5870356310
H                54.2894087621       38.2936860506       33.3964757893
H                53.5980693820       37.2630546643       34.6480724025
H                53.2435255508       36.1261905911       32.2439990959
H                50.9185051752       39.3859643199       33.7358697048
H                51.4723445849       35.6166669156       30.6281157370
H                49.2382777873       38.9629398144       32.0430840555
H                49.4234155657       37.0040870890       30.5520453878
N                55.1509081255       40.8962138055       44.6377372465
C                55.0698590889       39.7965706032       45.5754802752
C                56.4081516339       39.6276490937       46.2841758082
O                56.4904874057       39.4625282959       47.5021376348
C                54.6896377774       38.5143238774       44.8351194672
C                53.3181380779       38.6635495211       44.1824210389
C                52.2305144436       39.0344490269       45.2016385758
N                50.9727467890       38.3791662937       44.9149771225
C                50.7599353847       37.0955980368       45.1732906517
N                51.7559072017       36.2715765476       45.4971287643
N                49.5177704557       36.6298252749       45.0786340886
H                55.4364194184       40.6638981156       43.6948076048
H                54.3284742174       40.0340326846       46.3474710030
H                55.4399198548       38.3171666798       44.0668661503
H                54.6953142455       37.6925763319       45.5511338522
H                53.3772395915       39.4374567881       43.4174674732
H                53.0392669082       37.7297874385       43.6962078768
H                52.5169168769       38.7657930143       46.2236214194
H                52.0656296168       40.1106393308       45.2052688513
H                50.1771843224       38.9417100704       44.6577590149
H                52.6223638112       36.6330950277       45.8637919537
H                51.5282663841       35.3102122269       45.6981315077
H                48.8740102837       37.1464868258       44.4960859653
H                49.3165595820       35.6434567165       45.1683799325
N                35.5962140402       26.9410655780       47.6969204678
C                36.7479380378       27.1108219820       46.8391272155
C                36.7557090736       26.0553892627       45.7299409671
O                36.9445925420       26.3560237962       44.5618719503
C                38.0553670319       27.1035222263       47.6461320290
C                39.1339553159       27.6586277758       46.7563196456
C                39.2865761006       29.0356524243       46.6364342721
C                39.9067975126       26.8181555920       45.9684253040
C                40.1626290030       29.5696741975       45.7082593825
C                40.7908224794       27.3483063523       45.0459486517
C                40.8856528210       28.7218794164       44.8843824002
H                35.7187507301       26.4446284114       48.5677507665
H                36.6457406653       28.0764852288       46.3275977422
H                37.9240316687       27.7419756201       48.5206784592
H                38.2959267223       26.0927118579       47.9791601550
H                38.6995580399       29.6928318024       47.2621839656
H                39.7996129581       25.7469791345       46.0600155921
H                40.2763491413       30.6429853940       45.6340560928
H                41.4063170477       26.6882082529       44.4530097978
H                41.5102467409       29.1206937372       44.1010002330
N                37.2217196530       26.6911195429       41.7935196021
C                38.4716901307       26.2474144606       41.2039067626
C                38.2338263748       25.2317865186       40.0905560384
O                39.0581971518       25.0731288984       39.1920864147
C                39.4686601900       25.6359750323       42.2124494265
C                39.0591093617       24.2249595073       42.6205598680
C                40.8784440872       25.6025374971       41.6265143011
H                36.7991374621       26.0990210513       42.4951629748
H                38.9320763671       27.1282101175       40.7444806722
H                39.4505272612       26.2820410372       43.0952584117
H                39.6022638235       23.9407875091       43.5172552388
H                37.9929438619       24.1808486988       42.8066723977
H                39.2910971102       23.5027846879       41.8398888185
H                41.5631281347       25.1552244415       42.3418373546
H                40.9007053617       24.9957573383       40.7236314571
H                41.2286344621       26.5997779652       41.3782423674
N                36.8914477577       27.6521696811       36.9775322896
C                37.8440872689       28.3001596838       36.0910295214
C                38.4622970088       27.2763187483       35.1578622788
O                38.7047908518       27.5503820719       33.9908746627
C                38.9180911371       28.9358587768       36.9770193046
C                38.7292493313       28.2858470482       38.3493848271
C                37.3077852852       27.7129728548       38.3637178703
H                37.3422420896       29.0385951590       35.4557841234
H                39.9042274189       28.7322380678       36.5594889916
H                38.7917433520       30.0157122261       37.0274626354
H                39.4571176059       27.4863439125       38.4914244011
H                38.8208461100       29.0130902021       39.1526297308
H                37.2959128101       26.7217899551       38.8130217245
H                36.6451193577       28.3496552315       38.9519930693
N                38.3169112656       27.4586050632       31.3268815147
C                39.6487402341       27.4841120613       30.7615407438
C                39.8213917623       26.2916749866       29.8366073979
O                40.3968964005       26.3884847123       28.7574275864
C                40.6717999745       27.4110566537       31.8961247089
C                42.0431285370       26.9615229525       31.4917005042
C                42.7641553533       26.1264118032       32.3347046451
C                42.6463631202       27.4186202481       30.3311255641
C                44.0852079635       25.8346073823       32.0661784045
C                43.9789086529       27.1494983464       30.0682069066
C                44.7064894394       26.3858416649       30.9565033688
H                38.2787810102       27.3330373253       32.3333221101
H                39.7808759942       28.3876407538       30.1559053811
H                40.7411381941       28.3947445203       32.3705417652
H                40.2934731334       26.7122129215       32.6387208155
H                42.2956264995       25.7104075859       33.2144641639
H                42.0672387386       27.9956175202       29.6289490975
H                44.6335260930       25.1865388636       32.7282702928
H                44.4441133510       27.5544360717       29.1844951830
H                45.7585435299       26.2254665748       30.7828772236
N                47.4821155263       35.2302696430       26.6167753893
C                47.9381096665       36.1926260181       27.5940051859
C                46.9594462544       36.3096452176       28.7483421466
O                47.3206704307       36.2270906512       29.9170968412
C                48.0376549689       37.5809136746       26.9746091061
C                48.8503762553       37.6188479357       25.6856082952
C                48.9588868351       39.0730998538       25.2650045019
C                50.2162837036       36.9692878729       25.8392313877
H                47.3390001008       35.5572213102       25.6684255827
H                48.9056131254       35.8777587677       28.0098068639
H                47.0330821280       37.9443500166       26.7537751853
H                48.4748339762       38.2501928979       27.7155543589
H                48.3004639801       37.0872460591       24.9067886075
H                49.4732642532       39.1578180978       24.3166788770
H                47.9626835994       39.5015302608       25.1692162792
H                49.5062901797       39.6518834535       26.0016396024
H                50.7825054107       37.1272553739       24.9290405144
H                50.7525769772       37.4094427498       26.6735775255
H                50.1199860235       35.9020139486       26.0129996362
N                45.7057540598       36.5823730751       28.3839197297
C                44.6738348084       36.7932253532       29.3746977034
C                44.5476120502       35.5523901441       30.2648354404
O                44.4441202811       35.6345663648       31.4816403459
C                43.3376502479       37.0402678509       28.6678462075
O                42.8776706341       35.9056511205       28.0041487329
H                45.4668930112       36.6812302273       27.3997551930
H                44.9242874938       37.6519759841       30.0105479947
H                42.5768023692       37.2937498593       29.4111530540
H                43.4614769201       37.8766552313       27.9626484185
H                43.5776469810       35.5546703812       27.4152182127
N                44.5347005079       34.4142881906       29.5837492111
C                44.3508291961       33.1003755005       30.1580002230
C                45.4351122934       32.8900805818       31.2022123148
O                45.1781206520       32.5685919809       32.3577421072
C                44.4278735985       32.0964842651       29.0069692849
C                44.1924412103       30.6211455551       29.3655313476
C                43.2574248688       30.4990842872       30.5619075530
C                43.6543975878       29.9383511924       28.1058320770
H                44.6061929344       34.4297897104       28.5761152220
H                43.3787285857       33.0486465679       30.6611563548
H                43.6638688882       32.4017939503       28.2886297263
H                45.3988491704       32.2111047920       28.5262730693
H                45.1420605123       30.1549419361       29.6477572896
H                43.0036151839       29.4662799012       30.7597416377
H                43.7536084334       30.8847013266       31.4444841579
H                42.3487794779       31.0649297120       30.4024613417
H                43.2731634975       28.9463329274       28.2976916811
H                42.8342665245       30.5190240060       27.6935977980
H                44.4490998111       29.8593563516       27.3688212586
N                46.6633333790       33.0917534692       30.7310658572
C                47.8450552935       32.9895978185       31.5480091479
C                47.7126036333       33.9235609524       32.7436926429
O                47.8733252963       33.4687222737       33.8733223718
C                49.1091001683       33.2320716132       30.6886929372
O                49.2317709098       32.2451212285       29.6963157884
C                50.3601218158       33.1536155608       31.5522215284
H                46.8024565329       33.3939932240       29.7733109809
H                47.9039878684       31.9750914649       31.9724216747
H                49.0189250882       34.2317137326       30.2379578850
H                48.6185716888       32.4313336195       28.9680646218
H                51.2408163612       33.2040774633       30.9183242003
H                50.3800390873       33.9629451512       32.2725131963
H                50.3684299415       32.2006696245       32.0722990999
N                47.3731090922       35.1977669054       32.5415205359
C                47.2774653447       36.0626646144       33.7068663535
C                46.2433658870       35.4927910050       34.6788474978
O                46.4764369657       35.4476562514       35.8855938817
C                47.0376420579       37.5427684501       33.3439040763
C                45.5735754443       37.9600278465       33.2764065992
C                47.7410018801       38.4193879833       34.3786373410
H                47.3280189881       35.6188192767       31.6177412240
H                48.2315552600       36.0089537324       34.2566244754
H                47.4884530342       37.6960168197       32.3595772625
H                45.5094255650       38.9936610788       32.9463274727
H                45.0044714110       37.3401459439       32.5937121038
H                45.1287164177       37.9056195357       34.2677202077
H                47.6204955031       39.4734009166       34.1415476975
H                47.3063014338       38.2365894155       35.3590115047
H                48.8016344722       38.1935545832       34.4324060128
N                45.1040319186       35.0515878734       34.1517063192
C                44.0350654649       34.5560061514       34.9971100705
C                44.5694364180       33.4061276179       35.8554279685
O                44.3863443668       33.3719864735       37.0680409258
C                42.8405092003       34.0961387737       34.1568648653
C                42.1691208038       35.1876975250       33.3547414777
C                41.1370621008       34.8577987230       32.4788223542
C                42.5930937377       36.5071495417       33.3933657991
C                40.6016967432       35.8047572272       31.6249454905
C                42.1137887829       37.4367934356       32.4864282956
C                41.1134836588       37.0902731900       31.5991945267
H                44.9058662386       35.1546552656       33.1615084449
H                43.7306914795       35.3415515522       35.7052757988
H                43.2000722428       33.3386267749       33.4532878281
H                42.1140434801       33.6132511581       34.8161221639
H                40.7453686703       33.8510392417       32.4710721423
H                43.3201720315       36.8215893765       34.1201180514
H                39.8028986154       35.5386807197       30.9511626449
H                42.5507533108       38.4227101906       32.4588067395
H                40.7200929986       37.8169674130       30.9041895023
N                45.2049075072       32.4474168714       35.1837455634
C                45.7146999356       31.2806172452       35.8692999360
C                46.7747055316       31.6805314627       36.8879044487
O                46.7805147831       31.1860169428       38.0154182307
C                46.3209173883       30.2543876628       34.9131804920
C                45.3357242744       29.6916927609       33.8830567810
C                46.0661877795       28.7145021801       32.9679980391
C                44.1497028314       28.9980372069       34.5431003079
H                45.3481308146       32.5336905355       34.1837337164
H                44.8961878173       30.8273820774       36.4432291840
H                47.1549349395       30.7283131397       34.3928086511
H                46.7151534777       29.4331790023       35.5162880035
H                44.9655256740       30.5212750741       33.2779555895
H                45.3857131393       28.3359485954       32.2112041275
H                46.9038744121       29.1996528670       32.4745980193
H                46.4424558833       27.8716018351       33.5415668346
H                43.5371101198       28.5122504413       33.7884041685
H                44.4911973856       28.2411497899       35.2450633002
H                43.5295140858       29.7133779136       35.0748006620
N                47.6953901948       32.5391520567       36.4658670237
C                48.7447078586       32.9805964442       37.3576909702
C                48.1084278232       33.5921640100       38.6129547975
O                48.5274780210       33.3195145330       39.7339019200
C                49.7114141002       33.9467272864       36.6704069129
C                50.4640156466       33.3430631624       35.4715624014
C                51.3469745887       34.4073535629       34.8200741316
C                51.3244102571       32.1446605581       35.8560209692
H                47.6279039147       32.9754879217       35.5531234119
H                49.2993552643       32.0993051131       37.7086740084
H                49.1441930313       34.8169297930       36.3312069764
H                50.4295409383       34.2853191279       37.4215417592
H                49.7225562943       33.0216631474       34.7387108290
H                51.8966332995       33.9744184440       33.9881121518
H                50.7502155107       35.2368498224       34.4455537464
H                52.0637237114       34.7946267683       35.5399107173
H                51.8512760678       31.7791004712       34.9786618745
H                52.0592544745       32.4309789828       36.6044210830
H                50.7188555268       31.3348082251       36.2510583704
N                47.0439530980       34.3786166461       38.4176756327
C                46.3923073626       34.9983091307       39.5517270407
C                45.6146934263       33.9493677741       40.3459241579
O                45.4408798172       34.0722627594       41.5628337632
C                45.5405547701       36.2165439430       39.1566818645
C                44.9155697904       36.8483665182       40.3987705808
C                46.4105477310       37.2630681852       38.4626038680
H                46.7673035373       34.6738929245       37.4881377286
H                47.1746901921       35.3613149435       40.2357036296
H                44.7604024199       35.8752230516       38.4673070545
H                44.3436388011       37.7317034802       40.1248946698
H                44.2728587468       36.1508132744       40.9270714331
H                45.7046229693       37.1646499219       41.0802395244
H                45.8147902182       38.1401405215       38.2205940999
H                47.2219286735       37.5727256779       39.1200215408
H                46.8393360563       36.8687729786       37.5478207321
N                45.1762375034       32.8579603110       39.7236054631
C                44.5722757615       31.8036838462       40.5205488761
C                45.6378431530       31.2013771514       41.4479284521
O                45.3798898940       30.9656460083       42.6280611718
C                43.8590095699       30.7457682477       39.6614278137
C                42.6891188670       31.4213685530       38.9357813384
C                43.3560848681       29.6180512687       40.5601023819
C                42.0957033934       30.6303750251       37.7797154130
H                45.2417208736       32.7622433705       38.7180546930
H                43.8343016994       32.2685044167       41.1926391226
H                44.5793919921       30.3500157251       38.9393260610
H                41.8979691448       31.6028712805       39.6629619223
H                43.0340541048       32.3789362546       38.5479425403
H                42.8203335057       28.8743055388       39.9788654874
H                44.1808792970       29.1291177757       41.0702159515
H                42.6812006510       30.0230363261       41.3110725698
H                41.3178763072       31.2219374289       37.3014334739
H                42.8623957069       30.4164237470       37.0415540885
H                41.6562586816       29.6973041673       38.1165992898
N                46.8269152032       30.9901791059       40.8830136372
C                48.0018641350       30.5240267946       41.5935914799
C                48.4390456856       31.5677424956       42.6307330025
O                49.3927278356       31.3958776556       43.3771703239
C                49.1793015416       30.2252410206       40.6398521921
C                50.3426568551       29.5888437539       41.4001568727
C                48.7673730697       29.2786306003       39.5139927994
H                46.9447287229       31.1904500557       39.8966410477
H                47.7440118490       29.5876986596       42.1092578918
H                49.4844588931       31.1938369847       40.2289646378
H                51.1555513168       29.3614979042       40.7167920889
H                50.7077668944       30.2513168227       42.1763793978
H                50.0210094398       28.6578412290       41.8615206867
H                49.6253541937       29.0745488394       38.8777734406
H                48.4188427778       28.3330453227       39.9220535590
H                47.9868098473       29.7124932098       38.9010259398
N                47.6751603696       32.6631424488       42.7159017825
C                47.9372781876       33.7155133600       43.6584375501
C                46.9090218912       33.8367205877       44.7695487613
O                47.2252058568       34.3914669272       45.8182453025
C                47.9007732829       35.0820101182       42.9870504838
C                49.1429995489       35.3818111794       42.1830688732
C                49.1523312388       36.8532279941       41.6693161261
O                48.3836234989       37.6595023388       42.2369575033
O                49.9409131288       37.1029424442       40.7385812329
H                47.0147034022       32.8809729651       41.9862245708
H                48.9058119318       33.4941383389       44.1209519401
H                47.0432808091       35.0778774108       42.3204107749
H                47.6953936763       35.8584869450       43.7207637970
H                50.0604699524       35.1995433063       42.7480389684
H                49.1532836908       34.7295788901       41.3124084018
N                45.6991160712       33.3439220517       44.5042762877
C                44.6671422250       33.2512607800       45.5167639327
C                44.9007737918       31.9629937527       46.3280091745
O                44.8814557197       31.9605984962       47.5593459890
C                43.2665473502       33.3270812760       44.9024401913
C                43.0467976907       34.6245203423       44.1056519861
C                41.7464604920       34.5499306390       43.3074266196
C                43.0039383616       35.8654345436       44.9946637296
H                45.4874253738       33.0667761224       43.5555010095
H                44.8043397329       34.0894390460       46.2090680868
H                43.1205395369       32.4729097663       44.2367737041
H                42.5346168294       33.2706125242       45.7096149263
H                43.8790796897       34.7318617972       43.4023323811
H                41.6270319138       35.4668539565       42.7361932706
H                41.7629218004       33.7089577926       42.6198900885
H                40.8916437875       34.4520494253       43.9728359313
H                42.7675050330       36.7372271566       44.3877976070
H                42.2359439885       35.7753515452       45.7598302669
H                43.9606482032       36.0463271506       45.4758674161
N                45.1961015875       30.8773332569       45.6114425479
C                45.4398682362       29.5989180507       46.2451567538
C                46.6150990796       29.5463793476       47.2237673174
O                46.5086008940       28.7522407480       48.1615716881
C                45.5122891844       28.4266855756       45.2394452561
C                46.7491649908       28.4494292530       44.3339412688
C                44.2426421689       28.4085305847       44.3893381247
C                48.0009048777       27.8467697594       44.9590955648
H                45.2153519442       30.9285066059       44.5984899145
H                44.5801427265       29.3841073101       46.8985600641
H                45.5451348323       27.5153267269       45.8459993219
H                46.5201419983       27.8596485456       43.4434829070
H                46.9313959892       29.4739061636       44.0138427999
H                44.2459038756       27.5320985351       43.7471549536
H                43.3513438289       28.3717751456       45.0069755756
H                44.1980446741       29.2956586446       43.7634378574
H                48.8228547016       27.8676717477       44.2477566196
H                48.3231437506       28.3809209611       45.8434156541
H                47.7979076450       26.8179463216       45.2428885495
N                47.7237993005       30.2777005569       47.0732837732
C                48.8203069638       30.1535685395       48.0269392573
C                48.3753353480       30.7808725869       49.3306814721
O                48.4507572412       30.1634302039       50.3860469676
C                50.0134599420       30.8805315087       47.3996565748
C                49.3854029804       31.8697963120       46.4167675896
C                48.0031000379       31.3013259716       46.0895013851
H                49.0393173704       29.1025594515       48.2432651426
H                50.6151139342       31.3701210696       48.1650908537
H                50.6411380941       30.1614394212       46.8777700129
H                49.2820406401       32.8626694829       46.8543227404
H                49.9470211856       31.9475327010       45.4887667096
H                47.2575494496       32.0893498826       46.1338299014
H                47.9946404349       30.8698053659       45.0914284840
N                47.8826386293       32.0197470911       49.2583686776
C                47.4059614799       32.6480675940       50.4727578830
C                46.4631202495       31.6670703571       51.1802633343
O                46.5827721325       31.4268643239       52.3711302504
C                46.7532756657       34.0109443099       50.1864560668
O                45.4431429456       33.9564582126       49.6991613314
H                47.8298022398       32.5291892357       48.3885256645
H                48.2544115756       32.8068172488       51.1539421721
H                46.6872567107       34.5529419611       51.1328120320
H                47.4105056028       34.5646050590       49.4996573262
H                45.3968532609       33.5175155101       48.8343999118
N                45.5494140998       31.0771165771       50.3952763772
C                44.5937861187       30.1743002642       51.0050777829
C                45.3503151735       29.0056062407       51.6503899702
O                45.1580048118       28.7541688461       52.8308163187
C                43.4200746168       29.7771530594       50.0761279009
O                42.2706453386       29.8150387225       50.8997846412
C                43.5568589450       28.4199335071       49.3950966282
H                45.3825114809       31.3997153933       49.4491491157
H                44.1162489653       30.6866709339       51.8564001382
H                43.3425311404       30.5659812809       49.3059041427
H                41.5502764894       29.3278748773       50.4783611311
H                42.7225024043       28.2628386045       48.7127344240
H                44.4801216291       28.3710881606       48.8292793344
H                43.5595899702       27.6275246825       50.1400635568
N                46.2194423543       28.3134448059       50.9088021887
C                46.8200139689       27.0804855187       51.3940657030
C                47.8224828176       27.2674971817       52.5361341757
O                48.0927086217       26.3544197737       53.3007296820
C                47.5267096976       26.3948624381       50.2200286100
O                48.6667351334       27.0914653395       49.7787100591
H                46.3660985166       28.5421077640       49.9272834885
H                46.0510933482       26.4164247667       51.8113969741
H                47.8692712477       25.4024446593       50.5242212010
H                46.8023899031       26.3045286893       49.3986719441
H                48.5230070691       28.0409064096       49.9046746273
N                48.3948402350       28.4736767141       52.5853936413
C                49.3363721774       28.8148302762       53.6195162048
C                48.6037562353       29.2416553095       54.9007781476
O                49.1034382015       29.0772010715       56.0054930288
C                50.3281492631       29.8937827381       53.1586915428
O                51.5823997874       29.2946440628       52.9418139767
H                48.1877681954       29.1621635380       51.8747147597
H                49.8990050147       27.9040597715       53.8666697455
H                49.9545002037       30.3445320337       52.2300424812
H                50.4029325608       30.6749840832       53.9276763553
H                52.2103839271       29.9707851058       52.6560010637
N                47.8295531087       19.3613801226       46.0821487878
C                48.3203950807       20.5537437562       45.4292156425
C                49.0824859709       20.1974674231       44.1601005647
O                48.9487953374       20.8501139102       43.1212231951
C                49.2413074965       21.3296484840       46.3735077041
C                48.5311670200       21.7320881632       47.6593330983
S                47.0498770682       22.7598256907       47.3724931489
C                47.8394027992       24.3127225097       46.8736205321
H                48.3914188263       19.0166511267       46.8515330895
H                47.4636808980       21.1756132681       45.1364960309
H                50.0956716241       20.7004670246       46.6302728606
H                49.6109034300       22.2152283736       45.8552577064
H                48.1648576280       20.8591361263       48.1995000152
H                49.2007341685       22.3042201600       48.3011168424
H                47.0389971078       25.0272967756       46.7135978192
H                48.4911944521       24.6650453936       47.6686582740
H                48.3909269148       24.1660021225       45.9497472457
N                47.6286420664       22.5283510061       35.7312490180
C                47.8472894474       23.8738323131       35.2265452965
C                49.1155136687       23.9145416055       34.3766427533
O                49.1521527446       24.5682228161       33.3398336639
C                47.8392723175       24.8807034938       36.3914781489
C                49.1199591527       24.8091289908       37.2146971209
C                47.6153654285       26.3041610443       35.8908269848
H                47.4290642024       22.4206458190       36.7198683914
H                47.0345621987       24.1144023918       34.5248239016
H                47.0013932384       24.5941046587       37.0368159599
H                48.9895465948       25.3614610425       38.1417366939
H                49.3507409488       23.7793016793       37.4565804399
H                49.9585051075       25.2318060182       36.6676778198
H                47.6469641548       26.9997326854       36.7265368955
H                48.3954538921       26.5811638996       35.1860339384
H                46.6507043792       26.4018113881       35.4000493878
N                48.2091352389       22.1234013667       31.0954833509
C                47.4545534984       23.0251122382       30.2626258192
C                48.3642561734       24.1363043836       29.7415500288
O                48.1941267312       24.5578843097       28.5995927697
C                46.2359538708       23.5187853549       31.0514170145
O                46.5907994635       24.1771260865       32.2344423676
H                48.0411651238       22.1421800627       32.0952530175
H                47.0917868543       22.5042234848       29.3640320318
H                45.6019854647       24.1391401540       30.4079021386
H                45.6657387082       22.6378422983       31.3551841297
H                46.9207271128       25.0672668003       32.0521024886
N                49.3218790765       24.5726943157       30.5541645851
C                50.3334340323       25.5359246653       30.1699933277
C                51.2980715278       24.9470822413       29.1488700172
O                51.5676771209       25.6278285527       28.1516724520
C                51.0795445822       26.0351631730       31.4230442784
C                50.3287058081       27.1699101061       32.1337304951
C                52.5198416016       26.4163036711       31.1000014563
C                50.2889951780       28.4918352204       31.3794187894
H                49.3291534645       24.3299918144       31.5418963614
H                49.8638868918       26.3821493283       29.6484877833
H                51.1067683137       25.1947437691       32.1191738038
H                49.3122696651       26.8352266545       32.3458878202
H                50.8295998198       27.3365221642       33.0897413229
H                53.0008553815       26.8237326197       31.9840029065
H                53.0780029053       25.5403557113       30.7796806691
H                52.5503190188       27.1546047737       30.3045567028
H                49.7656173136       29.2384784349       31.9708942140
H                51.2930330364       28.8588477887       31.1942878809
H                49.7772446698       28.4019393121       30.4255284380
N                35.8511214155       37.7356950848       36.6486314634
C                36.6699843588       36.9764807903       37.5713931741
C                36.9740103167       37.8612729321       38.7810547927
O                36.8571394861       37.4567583332       39.9351088050
C                37.9182809804       36.4614996746       36.8593433845
C                38.7833642309       35.5194032831       37.6600890968
C                39.9407676232       35.0088863197       37.0737703768
C                38.5029355344       35.1702244659       38.9745685262
C                40.8451822823       34.2790166497       37.8212325668
C                39.4166461397       34.4550592347       39.7333276160
C                40.6093153704       34.0443854914       39.1667027194
H                36.2011922465       37.8931382046       35.7106129438
H                36.0610894816       36.1388384285       37.9396911083
H                37.5766660759       35.9743724093       35.9419781436
H                38.5324364377       37.3173803549       36.5576777666
H                40.1310244584       35.1871617940       36.0245909090
H                37.5782186022       35.4674138666       39.4348242727
H                41.7488129654       33.9106153012       37.3612371119
H                39.2020931671       34.2333096763       40.7702751726
H                41.3433309497       33.5416822708       39.7714468928
N                36.2001482446       37.7258184405       42.8589207987
C                37.2588462246       37.8369324980       43.8387908571
C                36.9401262772       38.8116188809       44.9774225272
O                37.4244453582       38.6293782967       46.0903074247
C                38.5828754959       38.3003532650       43.2328551818
C                39.1751528191       37.2840547985       42.2661697668
C                40.5121732042       37.7865240189       41.7458115760
O                41.0398593853       38.8105220984       42.1491670650
N                41.0835424335       37.0318763750       40.7906443817
H                36.2342501197       38.4173511634       42.1207229792
H                37.4079641268       36.8682737711       44.3254360023
H                38.4317737889       39.2490154555       42.7164894364
H                39.2822888223       38.4653081287       44.0567220478
H                39.3263534636       36.3379622816       42.7879362001
H                38.4838582682       37.1109897684       41.4392148231
H                40.6761327552       36.1765680762       40.4466298097
H                41.9923728597       37.3150095367       40.4516125605
H                53.8401257080       43.4781983246       32.5482113747
H                55.2616195517       39.9376852866       35.4207919740
H                54.3433563421       41.2861394819       44.5614608807
H                57.2585309595       39.6489139146       45.7584355588
H                35.2760752307       27.7483076231       47.9332918349
H                36.6036188542       25.0928810565       45.9545439907
H                37.3454709118       27.4858129517       42.1974354496
H                37.3977096670       24.6832695047       40.0843967873
H                36.0755617963       28.0123504093       36.8567020737
H                38.6784222527       26.3596339150       35.4939854636
H                37.9001854090       28.2362814934       31.1492331811
H                39.4612610650       25.3971658294       30.1014833093
H                48.0822782278       34.5629747340       26.5495278159
H                47.6990649740       29.6637116734       54.8424502170
H                47.0106817930       19.5195489551       46.4204273547
H                49.7093113265       19.4183220778       44.1553566850
H                46.9254647992       22.1592291085       35.3078216269
H                49.9265508091       23.4049886192       34.6640005636
H                48.0419209129       21.2745068306       30.8476579371
H                51.6900787433       24.0391183915       29.2969645498
H                35.0625290967       37.3176923569       36.5328909166
H                37.2794883301       38.8039670778       38.6468499831
H                36.2415608010       36.9191058089       42.4620584420
H                36.3389877822       39.5935944728       44.8126600210
