 412 
 
N               149.3230000000       73.6490000000      102.5840000000
C               150.4040000000       74.4990000000      102.0860000000
C               151.2870000000       73.6320000000      101.1450000000
O               151.6330000000       74.0640000000      100.0360000000
C               151.2430000000       75.0710000000      103.2510000000
C               152.2910000000       76.0890000000      102.7940000000
C               151.6180000000       77.2860000000      102.1530000000
N               152.4760000000       78.4860000000      102.0880000000
C               152.5190000000       79.3350000000      101.0670000000
N               151.7560000000       79.1160000000      100.0050000000
N               153.2020000000       80.4600000000      101.1640000000
H               149.3110000000       73.5640000000      103.4400000000
H               150.0380000000       75.2570000000      101.6040000000
H               150.6500000000       75.4920000000      103.8930000000
H               151.6880000000       74.3420000000      103.7110000000
H               152.8230000000       76.3770000000      103.5520000000
H               152.8990000000       75.6750000000      102.1620000000
H               151.3400000000       77.0480000000      101.2550000000
H               150.8140000000       77.5000000000      102.6510000000
H               152.9860000000       78.6470000000      102.7610000000
H               151.2390000000       78.4290000000       99.9810000000
H               151.7780000000       79.6610000000       99.3400000000
H               153.6220000000       80.6470000000      101.8910000000
H               153.2270000000       81.0060000000      100.5000000000
N               151.6070000000       72.4110000000      101.5920000000
C               152.4200000000       71.4820000000      100.8360000000
C               151.8460000000       71.3080000000       99.4420000000
O               152.5530000000       71.5290000000       98.4600000000
C               152.5220000000       70.1200000000      101.5300000000
C               153.1330000000       69.0610000000      100.5950000000
C               153.3170000000       70.1870000000      102.8180000000
H               151.3490000000       72.1060000000      102.3540000000
H               153.3140000000       71.8530000000      100.7780000000
H               151.6150000000       69.8600000000      101.7530000000
H               153.1860000000       68.2110000000      101.0590000000
H               152.5760000000       68.9650000000       99.8070000000
H               154.0230000000       69.3390000000      100.3290000000
H               153.3550000000       69.3060000000      103.2210000000
H               154.2170000000       70.4940000000      102.6270000000
H               152.8880000000       70.8040000000      103.4310000000
N               152.8910000000       73.6530000000       96.8260000000
C               154.3030000000       73.4520000000       96.4810000000
C               154.4200000000       72.3180000000       95.4860000000
O               155.0410000000       72.4700000000       94.4430000000
C               155.1240000000       73.1730000000       97.7210000000
C               155.0930000000       74.3230000000       98.7480000000
C               155.5180000000       73.8300000000      100.1090000000
C               155.9670000000       75.5070000000       98.3110000000
H               152.7180000000       73.5280000000       97.6590000000
H               154.6510000000       74.2620000000       96.0770000000
H               154.7960000000       72.3630000000       98.1420000000
H               156.0430000000       73.0050000000       97.4610000000
H               154.1780000000       74.6400000000       98.7990000000
H               155.4930000000       74.5650000000      100.7420000000
H               154.9140000000       73.1300000000      100.4030000000
H               156.4200000000       73.4780000000      100.0590000000
H               155.9210000000       76.2070000000       98.9800000000
H               156.8860000000       75.2120000000       98.2140000000
H               155.6460000000       75.8500000000       97.4620000000
N               166.6090000000       73.6920000000       89.2830000000
C               166.8890000000       72.8650000000       90.4720000000
C               166.8590000000       73.7370000000       91.7480000000
O               166.1710000000       73.4210000000       92.7180000000
C               168.2380000000       72.1240000000       90.3270000000
C               168.3360000000       71.1180000000       89.1740000000
C               169.7370000000       70.6330000000       88.9290000000
O               170.2990000000       70.9010000000       87.8710000000
N               170.3340000000       70.0000000000       89.9370000000
H               167.1420000000       73.5600000000       88.6210000000
H               166.1960000000       72.1910000000       90.5500000000
H               168.9390000000       72.7850000000       90.2150000000
H               168.4200000000       71.6560000000       91.1570000000
H               167.7660000000       70.3570000000       89.3670000000
H               167.9960000000       71.5290000000       88.3640000000
H               169.8980000000       69.8350000000       90.6590000000
H               171.1560000000       69.7570000000       89.8660000000
N               167.5550000000       74.8720000000       91.6930000000
C               167.6240000000       75.8210000000       92.7870000000
C               166.2280000000       76.1400000000       93.3170000000
O               165.9280000000       75.9640000000       94.4950000000
C               168.3040000000       77.1190000000       92.3300000000
O               167.5700000000       77.7030000000       91.2610000000
H               168.0070000000       75.1110000000       91.0020000000
H               168.1470000000       75.4180000000       93.4980000000
H               168.3600000000       77.7420000000       93.0720000000
H               169.2130000000       76.9340000000       92.0450000000
H               167.9470000000       78.4130000000       91.0170000000
N               165.3680000000       76.5940000000       92.4030000000
C               163.9580000000       76.9170000000       92.6910000000
C               163.3460000000       75.7330000000       93.4000000000
O               162.7840000000       75.8960000000       94.4830000000
C               163.1960000000       77.2320000000       91.4020000000
C               163.6360000000       78.5440000000       90.7200000000
O               164.0700000000       79.4830000000       91.4270000000
O               163.5030000000       78.6600000000       89.4860000000
H               165.5870000000       76.7270000000       91.5820000000
H               163.9060000000       77.7060000000       93.2530000000
H               163.3150000000       76.4980000000       90.7790000000
H               162.2480000000       77.2840000000       91.6020000000
N               163.5430000000       74.5470000000       92.8310000000
C               163.0480000000       73.2920000000       93.4220000000
C               163.5750000000       73.0810000000       94.8310000000
O               162.8340000000       72.6370000000       95.7210000000
C               163.4590000000       72.1020000000       92.5710000000
C               162.9130000000       71.9760000000       91.1130000000
C               163.5540000000       70.8260000000       90.3190000000
C               161.4190000000       71.7610000000       91.2170000000
H               163.9670000000       74.4410000000       92.0900000000
H               162.0810000000       73.3630000000       93.4560000000
H               164.4280000000       72.1010000000       92.5200000000
H               163.2000000000       71.2990000000       93.0490000000
H               163.1340000000       72.7860000000       90.6270000000
H               163.1760000000       70.7990000000       89.4260000000
H               164.5120000000       70.9680000000       90.2600000000
H               163.3790000000       69.9850000000       90.7690000000
H               161.0410000000       71.6780000000       90.3280000000
H               161.2430000000       70.9510000000       91.7200000000
H               161.0140000000       72.5170000000       91.6700000000
N               164.8290000000       73.4620000000       95.0690000000
C               165.4230000000       73.3680000000       96.3810000000
C               164.7550000000       74.3150000000       97.3610000000
O               164.5730000000       73.9550000000       98.5200000000
C               166.9400000000       73.6360000000       96.3500000000
C               167.6960000000       72.6890000000       95.3980000000
O               167.4400000000       71.4930000000       95.4580000000
O               168.5150000000       73.1640000000       94.5780000000
H               165.3530000000       73.7820000000       94.4670000000
H               165.2830000000       72.4560000000       96.6800000000
H               167.0960000000       74.5540000000       96.0780000000
H               167.2990000000       73.5410000000       97.2460000000
N               164.3400000000       75.4720000000       96.8570000000
C               163.6660000000       76.4720000000       97.6850000000
C               162.2940000000       75.8780000000       98.0690000000
O               161.9300000000       75.8370000000       99.2560000000
C               163.5040000000       77.7920000000       96.9050000000
O               162.7640000000       78.7560000000       97.6630000000
H               164.4390000000       75.7000000000       96.0340000000
H               164.1810000000       76.6770000000       98.4810000000
H               164.3780000000       78.1510000000       96.6870000000
H               163.0500000000       77.6200000000       96.0650000000
H               162.6900000000       79.4650000000       97.2190000000
N               161.5730000000       75.3730000000       97.0700000000
C               160.2790000000       74.7640000000       97.2930000000
C               160.4230000000       73.6900000000       98.3910000000
O               159.7320000000       73.7480000000       99.4030000000
C               159.7700000000       74.0560000000       96.0060000000
C               159.7530000000       75.0340000000       94.8270000000
C               158.4320000000       73.3990000000       96.2240000000
C               159.2510000000       74.4260000000       93.4990000000
H               161.8250000000       75.3770000000       96.2480000000
H               159.6520000000       75.4580000000       97.5500000000
H               160.3900000000       73.3430000000       95.7860000000
H               159.1910000000       75.7900000000       95.0570000000
H               160.6500000000       75.3780000000       94.6940000000
H               158.1450000000       72.9680000000       95.4040000000
H               158.5080000000       72.7360000000       96.9280000000
H               157.7800000000       74.0700000000       96.4810000000
H               159.2700000000       75.1040000000       92.8050000000
H               159.8250000000       73.6870000000       93.2440000000
H               158.3430000000       74.1050000000       93.6130000000
N               161.4100000000       72.8020000000       98.2040000000
C               161.7180000000       71.7200000000       99.1210000000
C               162.0380000000       72.2560000000      100.4990000000
O               161.6070000000       71.6710000000      101.5150000000
C               162.9180000000       70.9270000000       98.5810000000
C               163.2960000000       69.7300000000       99.4680000000
C               162.2320000000       68.6420000000       99.4820000000
O               161.9760000000       68.0140000000       98.4590000000
N               161.6560000000       68.4260000000      100.6610000000
H               161.9280000000       72.8220000000       97.5180000000
H               160.9430000000       71.1410000000       99.1930000000
H               162.7130000000       70.6090000000       97.6880000000
H               163.6820000000       71.5190000000       98.5030000000
H               164.1330000000       69.3530000000       99.1550000000
H               163.4460000000       70.0400000000      100.3750000000
H               161.8790000000       68.9010000000      101.3420000000
H               161.0600000000       67.8110000000      100.7420000000
N               162.8410000000       73.3180000000      100.5730000000
C               163.1750000000       73.9350000000      101.8360000000
C               161.8990000000       74.2340000000      102.6290000000
O               161.8070000000       73.9270000000      103.8220000000
C               164.0080000000       75.2430000000      101.6090000000
H               163.2020000000       73.6940000000       99.8890000000
H               163.7200000000       73.3180000000      102.3490000000
H               164.2230000000       75.6430000000      102.4660000000
H               164.8280000000       75.0270000000      101.1390000000
H               163.4890000000       75.8700000000      101.0810000000
N               160.8970000000       74.7880000000      101.9400000000
C               159.6330000000       75.1110000000      102.6120000000
C               158.9960000000       73.7960000000      103.0570000000
O               158.7420000000       73.6200000000      104.2540000000
C               158.7030000000       75.9030000000      101.6990000000
C               157.2950000000       76.0830000000      102.2620000000
C               157.2380000000       76.9390000000      103.4930000000
O               156.1790000000       77.5790000000      103.6970000000
O               158.1580000000       76.9140000000      104.3290000000
H               160.9260000000       74.9810000000      101.1020000000
H               159.8000000000       75.6760000000      103.3820000000
H               159.0910000000       76.7770000000      101.5350000000
H               158.6450000000       75.4530000000      100.8420000000
H               156.7310000000       76.4770000000      101.5780000000
H               156.9240000000       75.2110000000      102.4680000000
N               158.8230000000       72.8740000000      102.1100000000
C               158.2370000000       71.5620000000      102.4050000000
C               158.8690000000       70.9060000000      103.6450000000
O               158.1560000000       70.2580000000      104.4340000000
C               158.3980000000       70.6200000000      101.1840000000
C               157.7610000000       71.2260000000       99.9220000000
C               157.7160000000       69.2980000000      101.4840000000
C               157.8420000000       70.2610000000       98.7520000000
H               159.0390000000       72.9880000000      101.2850000000
H               157.2960000000       71.7060000000      102.5930000000
H               159.3460000000       70.4920000000      101.0230000000
H               156.8330000000       71.4480000000      100.0990000000
H               158.2120000000       72.0540000000       99.6940000000
H               157.8130000000       68.7040000000      100.7240000000
H               158.1250000000       68.8930000000      102.2650000000
H               156.7740000000       69.4510000000      101.6560000000
H               157.4350000000       70.6650000000       97.9700000000
H               158.7720000000       70.0580000000       98.5630000000
H               157.3720000000       69.4420000000       98.9740000000
N               160.1770000000       71.0590000000      103.8190000000
C               160.8510000000       70.4720000000      104.9650000000
C               160.3420000000       71.0890000000      106.2810000000
O               159.9900000000       70.3760000000      107.2170000000
C               162.4180000000       70.6370000000      104.8600000000
O               162.8300000000       70.2490000000      103.5230000000
C               163.1370000000       69.7340000000      105.8270000000
H               160.6890000000       71.4980000000      103.2860000000
H               160.6450000000       69.5240000000      104.9660000000
H               162.6380000000       71.5600000000      105.0620000000
H               162.5650000000       70.8240000000      102.9700000000
H               164.0950000000       69.8600000000      105.7370000000
H               162.8670000000       69.9500000000      106.7330000000
H               162.9130000000       68.8100000000      105.6350000000
N               160.2990000000       72.4160000000      106.3540000000
C               159.7840000000       73.1270000000      107.5150000000
C               158.4010000000       72.6150000000      107.7940000000
O               158.0440000000       72.3750000000      108.9570000000
C               159.7460000000       74.5870000000      107.2310000000
C               158.7100000000       75.4060000000      108.0330000000
C               158.8790000000       76.9150000000      107.8420000000
O               157.9170000000       77.6890000000      107.9580000000
N               160.1070000000       77.3410000000      107.5200000000
H               160.5710000000       72.9330000000      105.7230000000
H               160.3540000000       72.9810000000      108.2860000000
H               160.6270000000       74.9550000000      107.4040000000
H               159.5670000000       74.7100000000      106.2860000000
H               157.8160000000       75.1470000000      107.7600000000
H               158.7920000000       75.1910000000      108.9750000000
H               160.7520000000       76.7770000000      107.4480000000
H               160.2500000000       78.1780000000      107.3860000000
N               157.6220000000       72.4680000000      106.7190000000
C               156.2430000000       71.9580000000      106.8340000000
C               156.2100000000       70.6550000000      107.6010000000
O               155.7050000000       70.5870000000      108.7090000000
C               155.5660000000       71.7730000000      105.4750000000
C               155.0640000000       73.0590000000      104.8390000000
C               154.3350000000       73.9170000000      105.8360000000
N               154.7200000000       75.3260000000      105.7320000000
C               155.0650000000       76.0640000000      106.7880000000
N               155.0920000000       75.5390000000      108.0190000000
N               155.3320000000       77.3550000000      106.6030000000
H               157.8680000000       72.6560000000      105.9160000000
H               155.7440000000       72.6330000000      107.3210000000
H               156.1940000000       71.3500000000      104.8690000000
H               154.8180000000       71.1640000000      105.5790000000
H               155.8130000000       73.5530000000      104.4710000000
H               154.4730000000       72.8470000000      104.0990000000
H               153.3790000000       73.8330000000      105.6960000000
H               154.5200000000       73.5970000000      106.7330000000
H               154.7240000000       75.6940000000      104.9550000000
H               154.8850000000       74.7130000000      108.1390000000
H               155.3170000000       76.0280000000      108.6900000000
H               155.2800000000       77.6960000000      105.8150000000
H               155.5560000000       77.8480000000      107.2710000000
N               156.8260000000       69.6250000000      107.0150000000
C               156.9010000000       68.2870000000      107.6550000000
C               157.4600000000       68.3680000000      109.0670000000
O               157.0040000000       67.6530000000      109.9690000000
C               157.7670000000       67.3790000000      106.7670000000
C               157.3130000000       67.0460000000      105.3520000000
C               158.4030000000       66.2600000000      104.5750000000
C               156.0340000000       66.2280000000      105.3770000000
H               157.2100000000       69.6710000000      106.2470000000
H               156.0080000000       67.9180000000      107.7360000000
H               158.6430000000       67.7900000000      106.7000000000
H               157.8830000000       66.5390000000      107.2380000000
H               157.1520000000       67.8880000000      104.8980000000
H               158.0840000000       66.0640000000      103.6800000000
H               159.2110000000       66.7950000000      104.5200000000
H               158.5960000000       65.4300000000      105.0380000000
H               155.7610000000       66.0260000000      104.4680000000
H               156.1880000000       65.4010000000      105.8590000000
H               155.3350000000       66.7340000000      105.8190000000
N               158.4630000000       69.2140000000      109.2750000000
C               159.1080000000       69.3890000000      110.5970000000
C               158.1840000000       69.9730000000      111.6520000000
O               158.0700000000       69.4450000000      112.7410000000
C               160.4210000000       70.1810000000      110.4350000000
C               161.4710000000       69.4230000000      109.6450000000
O               161.2920000000       68.2510000000      109.3720000000
N               162.5450000000       70.1110000000      109.2770000000
H               158.7980000000       69.7100000000      108.6570000000
H               159.3410000000       68.4990000000      110.9060000000
H               160.2340000000       71.0230000000      109.9910000000
H               160.7750000000       70.3960000000      111.3120000000
H               163.1640000000       69.7300000000      108.8170000000
H               162.6220000000       70.9390000000      109.4970000000
N               157.4530000000       71.0430000000      111.3030000000
C               156.5190000000       71.7010000000      112.2020000000
C               155.4990000000       70.6200000000      112.6130000000
O               155.2130000000       70.4400000000      113.7930000000
C               155.8050000000       72.8500000000      111.4670000000
C               154.6100000000       73.4400000000      112.2490000000
C               155.0270000000       74.1540000000      113.5170000000
O               156.1410000000       74.7430000000      113.5340000000
O               154.2540000000       74.0970000000      114.4910000000
H               157.4930000000       71.4050000000      110.5240000000
H               156.9680000000       72.0800000000      112.9740000000
H               156.4450000000       73.5570000000      111.2890000000
H               155.4910000000       72.5280000000      110.6070000000
H               154.1300000000       74.0600000000      111.6780000000
H               153.9930000000       72.7260000000      112.4740000000
N               158.8920000000       63.0680000000      101.2100000000
C               158.3140000000       63.7960000000      100.0790000000
C               159.3950000000       64.7680000000       99.6190000000
O               159.7180000000       65.6920000000      100.3320000000
C               157.0480000000       64.5730000000      100.5160000000
C               156.6440000000       65.7450000000       99.6020000000
C               155.9070000000       65.2530000000       98.3830000000
C               155.8000000000       66.7330000000      100.3790000000
H               158.7310000000       63.4210000000      101.9770000000
H               158.0450000000       63.1910000000       99.3700000000
H               156.3060000000       63.9500000000      100.5650000000
H               157.1910000000       64.9160000000      101.4120000000
H               157.4490000000       66.1910000000       99.2960000000
H               155.6640000000       66.0080000000       97.8250000000
H               156.4780000000       64.6510000000       97.8810000000
H               155.1040000000       64.7830000000       98.6580000000
H               155.5480000000       67.4690000000       99.8000000000
H               155.0010000000       66.2900000000      100.7050000000
H               156.3100000000       67.0730000000      101.1310000000
N               159.9950000000       64.4550000000       98.4690000000
C               161.1040000000       65.2240000000       97.9140000000
C               160.8550000000       65.4090000000       96.4390000000
O               160.3560000000       64.5110000000       95.7740000000
C               162.4460000000       64.5040000000       98.1390000000
C               163.6160000000       65.2110000000       97.4950000000
O               163.6720000000       65.3910000000       96.2660000000
N               164.5980000000       65.5850000000       98.3000000000
H               159.7650000000       63.7820000000       97.9860000000
H               161.1570000000       66.0840000000       98.3600000000
H               162.6080000000       64.4250000000       99.0920000000
H               162.3860000000       63.6030000000       97.7860000000
H               165.2990000000       65.9640000000       97.9760000000
H               164.5350000000       65.4490000000       99.1470000000
N               161.1400000000       66.5990000000       95.9350000000
C               160.9140000000       66.8910000000       94.5310000000
C               162.1440000000       67.5530000000       93.8850000000
O               162.0190000000       68.1920000000       92.8500000000
C               159.6620000000       67.8060000000       94.2850000000
C               158.3800000000       67.0950000000       94.7300000000
C               159.8180000000       69.1020000000       95.0700000000
H               161.4660000000       67.2520000000       96.3900000000
H               160.7470000000       66.0300000000       94.1170000000
H               159.6000000000       67.9990000000       93.3360000000
H               157.6170000000       67.6730000000       94.5710000000
H               158.2730000000       66.2740000000       94.2250000000
H               158.4370000000       66.8870000000       95.6760000000
H               159.0450000000       69.6680000000       94.9180000000
H               159.8900000000       68.9010000000       96.0160000000
H               160.6190000000       69.5640000000       94.7760000000
N               163.3320000000       67.3370000000       94.4750000000
C               164.5740000000       67.8950000000       93.9940000000
C               165.0950000000       67.0310000000       92.8580000000
O               164.4630000000       66.0280000000       92.4840000000
C               165.6420000000       67.9360000000       95.0880000000
C               165.2440000000       68.7870000000       96.2830000000
C               166.3160000000       68.8260000000       97.3580000000
O               166.6260000000       67.7960000000       97.9590000000
N               166.8370000000       69.9970000000       97.6540000000
H               163.4240000000       66.8510000000       95.1780000000
H               164.3970000000       68.8020000000       93.7000000000
H               165.8230000000       67.0320000000       95.3890000000
H               166.4670000000       68.2810000000       94.7130000000
H               165.0580000000       69.6910000000       95.9840000000
H               164.4220000000       68.4390000000       96.6630000000
H               166.5990000000       70.6970000000       97.2150000000
H               167.4160000000       70.0630000000       98.2870000000
N               170.3800000000       65.9840000000       96.4070000000
C               170.9790000000       67.0370000000       95.6100000000
C               172.4640000000       66.8750000000       95.2770000000
O               172.9180000000       67.3110000000       94.2500000000
C               170.6690000000       68.4310000000       96.1660000000
C               171.0570000000       68.5800000000       97.6380000000
O               170.2780000000       69.2190000000       98.3860000000
O               172.1560000000       68.1000000000       98.0200000000
H               170.6300000000       65.9670000000       97.2300000000
H               170.5400000000       66.9410000000       94.7500000000
H               171.1420000000       69.0960000000       95.6420000000
H               169.7210000000       68.6120000000       96.0650000000
H               148.5299440793       73.9981661165      102.3408018717
H               150.8970944127       71.0149363147       99.3249877666
H               152.6500408669       74.4967675502       96.6260124568
H               153.9880841213       71.4369651839       95.6789412518
H               165.7771529464       73.5192685461       88.9860247076
H               155.0608820886       70.0544838629      111.9142552724
H               158.5599437814       62.2317423163      101.2302917275
H               165.9539309148       67.2671367788       92.4036024810
H               169.4853281710       66.0817304465       96.4103283959
H               173.0709642339       66.4021503540       95.9157547503
