 244 
 
N               164.5049584807       75.5569313432       87.9334379947
C               165.8376637447       74.9976387226       87.8432279365
C               166.1754225242       74.3031773762       89.1683054076
O               165.3632557666       74.2571202087       90.0844135822
C               166.8525048735       76.0727910611       87.4132467050
O               167.0792201522       77.0762141333       88.3673724159
H               164.3928679345       76.4977915990       88.3318041266
H               165.8011622151       74.2137786590       87.0737318311
H               167.7903317202       75.5910565623       87.1072717660
H               166.4280056074       76.5928302917       86.5517401902
H               167.5148801551       76.7223342353       89.1538634096
N               167.3840657657       73.7177877628       89.2961755694
C               167.5982766156       72.8689506046       90.4539565220
C               167.5609827127       73.6661310476       91.7633165403
O               167.0120000741       73.2012644771       92.7498612245
C               168.8636253728       72.0324498471       90.3016279450
C               168.5857106829       70.9042565457       89.3058216194
C               169.8396734882       70.1352927988       88.9471297291
O               170.5299067282       70.4513132856       87.9865730408
N               170.1311373931       69.0960015251       89.7246987478
H               168.0729827965       73.7183852775       88.5605050931
H               166.7354105767       72.1908229938       90.5385676507
H               169.6924282542       72.6573122289       89.9602937245
H               169.1412276833       71.6213725692       91.2741621056
H               167.8458430842       70.2265735128       89.7294751268
H               168.1844801973       71.3180182216       88.3799480989
H               169.6379600626       68.8935522030       90.5837017306
H               170.8847300145       68.4771926553       89.4574628229
N               166.3811083809       67.4399541460       92.1809617070
C               167.1657953815       66.6388562469       91.2657242937
C               168.6346677158       66.8081556026       91.6665692073
O               169.0420608697       67.8870239827       92.0940955121
C               167.0022114260       67.1271564420       89.8184075405
C               165.5541547136       67.0726219795       89.3403883126
C               165.3437747097       67.9520675946       88.1191213791
O               166.1559159969       68.7888843266       87.7489223834
N               164.1885438272       67.7384872479       87.4729850911
H               166.8284372938       68.2977813808       92.4763171848
H               166.8247223431       65.6059597134       91.3736060543
H               167.3473578316       68.1611573953       89.7613407237
H               167.6435719702       66.5397009916       89.1609314074
H               165.2586472923       66.0485024455       89.1176532558
H               164.8979138908       67.4522307633       90.1284012684
H               163.4957963766       67.1108499977       87.8438314178
H               163.9462527459       68.3289727909       86.6925700657
N               172.5018610890       67.4291656388       91.5467572628
C               173.5635761419       68.1175297944       90.8482892465
C               174.5830251783       67.0830675972       90.3455428623
O               174.7533794864       66.0148860230       90.9141584045
C               174.3156797700       69.0675957691       91.7984996222
C               173.7160054745       70.4449033438       91.8632360795
C               172.6210911783       70.7327656806       92.6713431341
C               174.2692305411       71.4736324938       91.1134464659
C               172.0895641829       72.0083322300       92.7261272438
C               173.7599187469       72.7562837767       91.1689468125
C               172.6550105882       73.0316543875       91.9671654202
O               172.1178015436       74.2782579372       92.0302045034
H               172.5580591122       67.4314318310       92.5597124320
H               173.1560017838       68.6720915621       89.9947762050
H               174.3199427517       68.6143960628       92.7911828934
H               175.3474286523       69.1495740988       91.4476681906
H               172.1758865565       69.9452758232       93.2619645990
H               175.1141330182       71.2764900920       90.4719243545
H               171.2303973341       72.2346964826       93.3418619101
H               174.2165899453       73.5438285491       90.5839468972
H               172.5512348642       74.8470818916       91.3767856261
N               175.2750651758       67.4675221153       89.2680786487
C               176.4930942937       66.7777619221       88.8818605283
C               177.5958611422       67.2658522047       89.8352403950
O               177.6513098196       68.4409835003       90.1858108948
C               176.8080053742       67.0849004965       87.4189070075
C               178.0127773256       66.3075831924       86.8913410631
C               178.2311493087       66.6071138299       85.4063537670
C               179.4096335770       65.8077684068       84.8539885814
N               179.5915572687       66.0891268808       83.3964126261
H               175.1487284953       68.3995403609       88.8880575253
H               176.3217311770       65.7077431991       89.0354580005
H               175.9181237743       66.8432070503       86.8352370442
H               176.9719093868       68.1609688945       87.3304106993
H               178.9026619990       66.5795421452       87.4615110489
H               177.8333163998       65.2404609737       87.0266606630
H               177.3149516348       66.3555946605       84.8697605344
H               178.4077918999       67.6776029548       85.2930002545
H               180.3172019649       66.0733845378       85.4002970216
H               179.2204334719       64.7427869552       84.9878709284
H               180.3943355197       65.5532724287       83.0277079590
H               178.7235765008       65.8424821196       82.8932591911
H               179.7744204175       67.0970882878       83.2627885503
N               182.8051843829       71.3105755360       93.4341858484
C               182.0290115077       72.1046472032       92.5051445607
C               180.8158793149       71.2840443713       92.0551609615
O               180.9194604949       70.0850652002       91.8112832104
C               182.8240586116       72.4913317474       91.2451845306
O               183.8305621932       73.4225320304       91.5765924085
H               182.8364070775       70.3093560261       93.2536618780
H               181.7113431850       73.0183784565       93.0179597705
H               183.2627696476       71.5875305989       90.8055078493
H               182.1184075351       72.9318258234       90.5291049264
H               184.2286704085       73.7246782959       90.7507295803
N               179.6928320892       71.9768473781       91.8958820187
C               178.4387735704       71.3569143816       91.5239156304
C               177.8867163351       72.0689908451       90.2871021468
O               177.8734470415       73.2942287233       90.2201496626
C               177.4391518443       71.4840793307       92.6908890159
C               178.0234108929       70.8883489872       93.9386821436
C               178.7217379842       71.6788426410       94.8415466154
C               177.9126275732       69.5258745138       94.1906375998
C               179.2784996311       71.1261075799       95.9798589964
C               178.4737800213       68.9605376768       95.3188873458
C               179.1590238379       69.7644417660       96.2257926389
O               179.6964753606       69.1830557632       97.3344988816
H               179.6548020363       72.9555854100       92.1657620569
H               178.6414222956       70.3056534572       91.3038519645
H               177.2270608614       72.5432898697       92.8406065723
H               176.5123021291       70.9795216243       92.4215420673
H               178.8372125188       72.7372606687       94.6596503594
H               177.3695407954       68.9082114820       93.4910812038
H               179.8020888189       71.7615290956       96.6798674388
H               178.3804613214       67.9066726395       95.5299612104
H               180.0375437638       69.8663194206       97.9247652044
N               177.4277194926       71.2687329535       89.3241408006
C               176.9118594886       71.7617920738       88.0645858455
C               175.4688142716       71.2929300170       87.8814310825
O               175.1670295675       70.1107136697       88.0156626675
C               177.7607884831       71.2418448642       86.8907066538
O               179.1060713276       71.5676167929       87.1666729468
C               177.2808783011       71.8438523830       85.5726125944
H               177.4556461479       70.2630122769       89.4596061128
H               176.9557723499       72.8522984713       88.0922188455
H               177.6511864102       70.1448162064       86.8621388456
H               179.6375594475       71.3322651756       86.3955124735
H               177.8857765519       71.4820118624       84.7452287194
H               176.2400050437       71.5869178654       85.3895736120
H               177.3619047491       72.9286363642       85.6100393498
N               174.5934838462       72.2531921021       87.5964272107
C               173.1948742299       71.9790796155       87.3649937486
C               172.8898861775       71.8479904165       85.8699082734
O               173.7363902564       72.0183442667       84.9966814518
C               172.3276291718       73.0623782834       88.0009306951
C               172.6738001120       74.4759960959       87.4494955860
O               172.7669933965       74.5893682758       86.2048789738
O               172.8084038110       75.3814911331       88.2844926589
H               174.9204601867       73.2001448027       87.4420435700
H               172.9715979709       71.0092598702       87.8267809510
H               171.2787070122       72.8618244506       87.7841400576
H               172.4685525041       73.0573097988       89.0817212003
N               171.6117355067       71.5285669994       85.6405537368
C               171.0195015701       71.2869082040       84.3439546645
C               171.3035115842       72.4033845240       83.3397905366
O               171.2426362087       72.2056082600       82.1343608733
C               169.4941416217       71.2508801078       84.4909250230
C               169.0011263082       70.0716221047       85.3329625715
O               169.6431524719       69.0465833521       85.4819031460
N               167.7827048709       70.2688905577       85.8529871295
H               171.0745555266       71.1846845272       86.4312811113
H               171.3716491524       70.3355716807       83.9234122895
H               169.1609980033       72.1973499007       84.9218362318
H               169.0589777705       71.1514719566       83.4938195678
H               167.3393889315       69.5717042219       86.4412902500
H               167.2809347367       71.1204533214       85.6723096947
N               171.4749626410       73.6093662810       83.8860599620
C               171.6217364459       74.8110034724       83.1126958494
C               173.0873392807       75.1775241113       82.8361979826
O               173.3712753219       76.1751535660       82.1874624885
C               170.9359266967       75.9609768217       83.8663652836
C               169.4643084066       75.6217365354       84.0428536338
O               169.0573746222       74.9040321329       84.9456807870
N               168.6535234493       76.1481424667       83.1170928428
H               171.6706307688       73.7193795186       84.8793231262
H               171.1481931672       74.6409076537       82.1365946440
H               171.4062946738       76.0347527984       84.8491513258
H               171.0822575322       76.8878001190       83.3155221928
H               167.6716574080       75.9198879440       83.1318921003
H               169.0115103719       76.6996581963       82.3570588444
N               173.9866474961       74.3198232238       83.3222965216
C               175.4002495060       74.5260526821       83.1831640078
C               176.0318098481       75.3628248355       84.2891901488
O               177.2468555984       75.5273148202       84.3240531780
H               173.6982586738       73.5512375537       83.9197075767
H               175.9064112319       73.5603567857       83.1423163753
H               175.5835830683       75.0663600543       82.2475733525
N               175.1980501546       75.9701418173       85.1440211892
C               175.7909987451       76.8025494512       86.1730954250
C               176.5847436118       75.9048047139       87.1268068598
O               176.1732891175       74.8060578192       87.4805483255
C               174.7251414557       77.6099784469       86.9109109297
C               175.3404903770       78.6191850606       87.8788787660
C               174.2531005775       79.4120181151       88.6037329912
C               174.8708265974       80.3750109208       89.6126395600
N               173.8053997975       81.1420198427       90.3167963463
H               174.2725479667       75.5854921461       85.3225794997
H               176.4926175531       77.4730903822       85.6607296287
H               174.1247460501       78.1266196217       86.1595071236
H               174.0708447481       76.9181931404       87.4471658478
H               175.9543590469       78.0871106972       88.6075276763
H               175.9896080440       79.2986530064       87.3240357247
H               173.6708110651       79.9587438096       87.8612067394
H               173.5921845480       78.7011878752       89.1022528086
H               175.4526182145       79.8157787343       90.3466560836
H               175.5340162825       81.0728476191       89.0997382720
H               174.2231326481       81.7813209264       91.0080693904
H               173.2588438770       81.6934582899       89.6379869590
H               173.1663603039       80.4932845575       90.8027530952
N               177.7332250215       76.4429797051       87.5514809673
C               178.7054295037       75.7751441861       88.3874380999
C               178.9093554000       76.6033696339       89.6557071927
O               179.3007250402       77.7664885698       89.5846805769
C               180.0651144895       75.7187531931       87.6421292881
O               180.4328483520       77.0044628846       87.2067762235
C               179.9904978700       74.7791332316       86.4463663357
H               178.0847250128       77.2808652955       87.1063772720
H               178.3459798685       74.7729584798       88.6250745890
H               180.8157953780       75.3359721441       88.3585224026
H               180.3008155946       77.6176074639       87.9555552198
H               180.9452030003       74.7806944176       85.9300077457
H               179.7581751542       73.7768896654       86.7946086542
H               179.2215550332       75.1109929437       85.7513015627
N               178.6465961902       75.9795921938       90.8018297385
C               178.8788258369       76.6101761678       92.0824769256
C               179.9117051188       75.8174094264       92.8800745751
O               179.8604249371       74.5944457328       93.0085578303
C               177.5696739292       76.7832183678       92.8908375980
C               176.8511608993       75.4426412036       93.0792228878
C               176.6826859744       77.8116549648       92.1918887802
C               175.7088814382       75.5063528157       94.0876364560
H               178.3672687557       75.0028294347       90.7941795915
H               179.3021603339       77.5982433042       91.8687235968
H               177.8658336140       77.1629091585       93.8754774679
H               176.4708643646       75.0941466303       92.1160680835
H               177.5838004283       74.7154764486       93.4316144168
H               175.8201314730       78.0351024792       92.8113043978
H               177.2474553642       78.7243383929       92.0175945176
H               176.3490176247       77.4128674704       91.2355579244
H               175.2823421588       74.5145755015       94.2177665839
H               176.0776189052       75.8588202773       95.0477601389
H               174.9189610619       76.1685436258       93.7479551826
H               164.1461900122       75.6127327847       87.1099263766
H               167.9870853727       74.5695496388       91.8109754568
H               165.6050767099       67.6713331489       91.7882294794
H               169.2680717313       66.0390514654       91.5812569619
H               171.7118660611       67.8080802293       91.3410108437
H               178.2806632525       66.6230160883       90.1784717998
H               183.6605700749       71.5903277468       93.4268361206
H               180.6709435512       76.2918164947       93.3256022805
