 275 
 
N                39.9087901255       53.8513179888       11.1430555979
C                40.5444689920       52.5639067698       10.9336944935
C                40.8050167631       51.8412789353       12.2511574416
O                40.7969554655       50.6201435023       12.3250994145
C                41.8455922583       52.7963337025       10.1581829844
C                42.5213181989       51.5179094150        9.6961478228
C                43.7492762328       51.7831334671        8.7592206713
O                44.0332369426       52.9651822652        8.4875724930
O                44.3407942452       50.7627868035        8.3523656609
H                40.2548343768       54.6110610837       10.5763908745
H                39.8787326086       51.9077600877       10.3543754028
H                41.6103305607       53.3830182629        9.2666225066
H                42.5428903734       53.3854084464       10.7586643829
H                42.8751334341       50.9177478629       10.5355539513
H                41.8196034975       50.9072543127        9.1243050670
N                39.0504633421       51.2605767517       14.9460705208
C                37.9491250512       50.9560231228       15.8409856749
C                38.2472438322       49.7553548619       16.7453246758
O                37.7151388303       49.6873411290       17.8438794814
C                36.6476669593       50.7084786542       15.0712415633
C                36.0928847069       51.9947523290       14.4663984789
S                35.0144473768       51.6139055150       13.0123495411
C                35.3499679502       53.0563469583       11.9743058563
H                38.8504603231       51.3275122670       13.9584573916
H                37.8246432051       51.7972640431       16.5395499902
H                36.8292930717       49.9976650421       14.2647150566
H                35.9117651590       50.2670644152       15.7432057189
H                35.4872971911       52.5487210728       15.1834513983
H                36.9016092870       52.6126624690       14.0892787547
H                34.6769556552       52.9774165419       11.1249514831
H                35.1376656076       53.9751718044       12.5153141086
H                36.3843904977       53.0339790857       11.6469443814
N                39.0952494398       48.8179612865       16.2890501478
C                39.4144745397       47.6559749431       17.1017541592
C                40.4567680675       48.0435966087       18.1619620544
O                40.3602158549       47.7295417172       19.3332187368
C                39.8317687351       46.4173203328       16.2684874340
O                40.2037405893       45.4402687260       17.2149817535
C                40.9594798831       46.6764038836       15.2711401746
H                39.4188564790       48.8420845498       15.3323583194
H                38.5235231242       47.3866766563       17.6858400820
H                38.9381578368       46.0760071598       15.7159688963
H                40.7254525557       44.7534152406       16.7809588221
H                41.1570686334       45.7749559490       14.6916384140
H                40.6979286907       47.4422763570       14.5468175729
H                41.8708885382       46.9466115534       15.7980745221
N                30.7089852020       51.1363248825       16.1077657654
C                30.4960822683       49.8576145348       15.5107740536
C                29.6870777797       49.9898053048       14.2030462826
O                29.8984408000       49.2388922879       13.2583161412
C                29.8404399924       48.8984815185       16.5273422054
C                30.8476579070       48.2121175087       17.3829033549
N                31.5562430765       48.7597903755       18.4160703553
C                31.2913838822       46.9217917322       17.3056436678
C                32.3447651006       47.7883248678       18.9244526659
N                32.2137559941       46.6680432729       18.2680616056
H                30.1523762749       51.3676165474       16.9163573048
H                31.5134414682       49.5295026602       15.2433470603
H                29.1422621256       49.4808230434       17.1295959557
H                29.2622195422       48.1302223688       16.0106491827
H                31.4693990407       49.7241436628       18.7014963838
H                30.9885127288       46.1606874918       16.6251001484
H                32.9756901849       47.9192932664       19.7798118672
N                26.7135776018       43.9959938927       17.9810161753
C                27.9240753376       44.2727446359       17.2299067685
C                28.0773799307       43.2754855177       16.0845061354
O                28.1950885898       43.7042338211       14.9384160534
C                29.1920562314       44.4818446439       18.0855944550
C                30.0799286094       43.3518379840       18.6264348457
C                31.0079996323       42.7252741584       17.5938446552
C                30.9612059422       43.9688999849       19.7161288573
H                26.8856385772       43.7907440226       18.9726398698
H                27.7907513056       45.2511975760       16.7420398957
H                29.8380989814       45.0966209132       17.4713355656
H                28.8907125756       45.0993386563       18.9330938989
H                29.4720673301       42.5583736305       19.0463204842
H                31.4673316023       41.8462838635       18.0416980182
H                30.4773870900       42.4016465878       16.7064971452
H                31.7850827899       43.4302410742       17.3137874261
H                31.6870492432       43.2436190368       20.0758545985
H                31.4946673579       44.8121323765       19.2836999899
H                30.3723372865       44.3160701083       20.5620358274
N                26.1066559559       44.1348212421       13.4668692591
C                26.6157542332       45.4685339884       13.2280419712
C                28.1546878794       45.5029971465       13.3098254864
O                28.7704639131       46.3458166078       13.9493151275
C                25.9799810079       46.4300330447       14.2375871000
C                24.4576821092       46.3931890236       14.1434207703
C                23.7507324120       47.3490399321       15.0933292355
O                24.3044713758       48.0520612561       15.9161760367
N                22.4091422646       47.3456163067       14.9506242922
H                26.1269253935       43.8513340276       14.4410050178
H                26.3475157430       45.7419799690       12.1993739245
H                26.2833740377       46.1293610630       15.2410936179
H                26.3522645920       47.4390618296       14.0608882823
H                24.1486665944       46.6264098272       13.1234760882
H                24.1135757824       45.3824623635       14.3747361956
H                21.9550844674       46.7656670491       14.2674558090
H                21.8542926122       47.9557093541       15.5274684271
N                28.7692143081       44.6140472815       12.5011345504
C                30.1945783934       44.4099352877       12.6292803801
C                30.9881851292       44.0919447437       11.3533854499
O                30.8350913638       43.1039882834       10.6614983520
C                30.5770032327       43.2909618445       13.5929921071
H                28.2221961672       43.8549287705       12.1248526079
H                30.5505407777       45.3527509329       13.0342377041
H                31.6333600113       43.1122327207       13.4749929889
H                30.3500129085       43.5605959002       14.6188873500
H                30.0275349915       42.3936048381       13.3331021054
N                32.0331453658       44.9421944417       11.1855374914
C                33.0623536384       44.7126926279       10.1949156800
C                33.7887954410       43.3956063501       10.4618025604
O                33.7831469393       42.8376595774       11.5454996399
H                31.9979579335       45.8639898485       11.5879756596
H                32.6355045617       44.6710521024        9.1894916209
H                33.7882170936       45.5269360575       10.2511314432
N                34.5113691163       42.9625049783        9.4129910173
C                35.1322034870       41.6535583234        9.4188467995
C                36.0194620490       41.4528173851       10.6399513574
O                36.0566173384       40.3980882736       11.2532395234
H                34.3880435424       43.4032029707        8.5141684679
H                34.3778422238       40.8574930984        9.4349326127
H                35.7533907321       41.5499251152        8.5279493813
N                36.7527240581       42.5258121813       10.9981945675
C                37.7184993338       42.4400729586       12.0742632234
C                37.0613450990       42.4231651891       13.4461742726
O                37.7461046352       42.4263174345       14.4686519744
C                38.7450463977       43.5741780161       12.0148514934
C                38.1587154736       44.9230821847       12.4347545664
C                39.1444074849       46.0612361186       12.1873259097
O                40.2605804815       45.8963892231       11.7264249627
N                38.6723482556       47.2757386236       12.5246064518
H                36.7837075459       43.3499399028       10.4160315415
H                38.2319357678       41.4710984735       11.9910810225
H                39.5674901418       43.3296989394       12.6873904894
H                39.1508336869       43.6386687376       11.0057202684
H                37.2420470702       45.1310157663       11.8828816327
H                37.9246302637       44.9006188915       13.5010636980
H                37.7535983019       47.3954781501       12.9178908948
H                39.2613082751       48.0810280569       12.3818264718
N                35.7338211070       42.4074525328       13.4895760126
C                35.1037940419       42.4058763296       14.7803354120
C                34.8960048595       41.0285522179       15.3646133895
O                34.7110484382       40.8956745730       16.5696819622
C                33.7349615186       43.0603462009       14.7450352022
C                33.8051648661       44.5265089176       14.3110108429
C                32.9503866539       45.3873119353       15.2319253858
C                32.9246520594       46.8588976374       14.8194361605
N                31.6126657216       47.1995850813       14.1994417316
H                35.1288408581       42.4198975052       12.6717838054
H                35.8077915959       42.9330563670       15.4334162862
H                33.1406145165       42.4474468858       14.0691229985
H                33.3001609679       42.9705846583       15.7408357758
H                34.8428695814       44.8498677679       14.3541889751
H                33.4440249277       44.6270762709       13.2899060484
H                31.9498997349       44.9573710090       15.2147057632
H                33.3069691774       45.3135078826       16.2574194526
H                33.0817298156       47.4952538013       15.6906172385
H                33.7203349181       47.0738426150       14.1088779825
H                31.2328927008       48.0935227405       14.5373303755
H                31.6636093105       47.3121340269       13.1816668682
H                30.8667236229       46.5150760596       14.4311972882
N                34.9061712707       39.9743989763       14.5399746220
C                34.9746048895       38.6819308643       15.1858599852
C                36.2065233140       38.7065027393       16.1063515136
O                36.1833359327       38.1764820169       17.2071208660
C                35.0090024290       37.5179235585       14.2130087733
S                33.4993785801       37.5756008362       13.1584063751
H                34.9754484011       40.0427895666       13.5334372714
H                34.1002984317       38.5534535776       15.8408596940
H                35.8825444102       37.5373224220       13.5611546862
H                34.9701393979       36.5773935032       14.7615716062
H                33.7369065923       36.4261829673       12.5474728554
N                37.2859553504       39.3573824023       15.6450813860
C                38.4738161063       39.3996231776       16.4692272303
C                38.2757644605       40.3303766839       17.6685775897
O                38.3335408002       39.9008397397       18.8143925561
C                39.8122908667       39.6219108132       15.7142525593
O                40.6095406195       40.4330743269       16.5601909874
C                39.6928746730       40.1844731202       14.2964689988
H                37.2886645960       39.8640171688       14.7738505922
H                38.4949913010       38.4262125605       16.9604210733
H                40.2864794238       38.6345756045       15.6453640905
H                41.4162886763       40.6811266944       16.0926464111
H                40.6783954433       40.2745050531       13.8412456789
H                39.1154471019       39.5093406735       13.6706563986
H                39.2392457926       41.1706730613       14.2961219903
N                37.8933394794       41.5664986498       17.3852930177
C                37.4941247728       42.4738983861       18.4421833548
C                36.7264108358       41.7329111843       19.5285711022
O                36.9629276733       41.9075579399       20.7260493090
C                36.5979533047       43.5140827160       17.7721601198
C                35.9968235855       44.5676711814       18.6964387633
C                35.6682961346       45.8199994301       17.8852878819
C                34.7761740021       44.0257034919       19.4450385942
H                37.9281767598       41.9260065095       16.4355270257
H                38.3733072887       42.9293949479       18.9202551359
H                37.2219499384       44.0061458394       17.0242224190
H                35.7857741281       42.9642925286       17.2977674456
H                36.7653616427       44.8258796000       19.4229224787
H                35.1189588057       46.5338093282       18.4899630027
H                36.5904696780       46.2884020120       17.5498068690
H                35.0687638729       45.5618979203       17.0218538164
H                34.1539308226       44.8309838924       19.8227973644
H                34.1684796668       43.3885886326       18.8082341083
H                35.0953818761       43.4445634426       20.3041544509
N                35.7155377565       40.9604393733       19.1355458443
C                34.7669003344       40.4584724102       20.1045047310
C                35.4249014661       39.5643624644       21.1406897156
O                35.0606567350       39.5977800021       22.3123446686
C                33.6467164232       39.7007293525       19.3745821658
O                34.0268460711       38.4521249588       18.8840593392
H                35.4514638224       40.8796823239       18.1571981118
H                34.3420362036       41.2939342120       20.6804969727
H                32.8472379458       39.5013737738       20.0862104548
H                33.2752445602       40.3459209846       18.5674982422
H                34.7426555627       38.5427741396       18.2282065628
N                36.3810331596       38.7585250379       20.6968409885
C                37.1999500284       37.9845227021       21.6008093046
C                37.8371763018       38.8733131183       22.6541024796
O                37.8964595633       38.5256707855       23.8268703140
C                38.3495689490       37.3735322827       20.8122121387
C                37.8723123253       36.4488794133       19.6995315188
C                39.3643627374       36.6952507670       21.7273788215
C                37.2769395432       35.1582827966       20.2144946412
H                36.7045282563       38.8237757847       19.7396815965
H                36.6022977696       37.2298645546       22.1178775940
H                38.8156146218       38.2443673613       20.3575109876
H                37.1580891074       36.9685576067       19.0600406306
H                38.7427407480       36.1876965284       19.1137533949
H                40.0408007304       36.0836960800       21.1400865243
H                39.9588952449       37.4316080363       22.2622590831
H                38.8641467285       36.0728454320       22.4626969130
H                36.9422705110       34.5683342224       19.3703930893
H                38.0289077692       34.6074452340       20.7711506582
H                36.4300371854       35.3571755003       20.8624181034
N                30.8346664273       32.6970687757       16.5908481951
C                31.6536156336       33.6009992999       15.8097194131
C                32.9120102390       32.9195014863       15.2200526844
O                33.6701845272       33.5103424022       14.4704120578
C                32.1371955401       34.7801769734       16.6698623369
O                33.3505248608       34.4572323342       17.3109274655
H                30.8220011927       32.8791959402       17.5964190139
H                31.0604380964       34.0042182961       14.9795711332
H                32.2802135287       35.6430390001       16.0107877906
H                31.3621190113       34.9989671111       17.4132103908
H                33.7221291430       35.2776635825       17.6623745366
N                31.0677482259       30.5018127733       12.6048162640
C                31.0086357115       31.5750127404       11.6463420717
C                32.4421842640       31.8611376938       11.0498086088
O                32.4877373836       31.9987675742        9.8143207576
C                30.5513744785       32.8392521699       12.3823065599
O                29.2100288584       32.7787870475       12.8093662437
C                30.7363349894       34.1047228119       11.5616599371
O                33.3678019764       31.9706207034       11.8670918712
H                31.0342022907       30.7843665533       13.5799058681
H                30.3580039216       31.2858976241       10.8146853125
H                31.2303821030       32.9074404510       13.2469785696
H                29.1645412686       32.1242811879       13.5270855867
H                30.5078489110       34.9673969627       12.1819279985
H                31.7695984080       34.1552416212       11.2343705109
H                30.0831967713       34.0869425182       10.6956542759
H                39.0294828954       53.7850259174       10.9629885096
H                40.9881777820       52.3668183304       13.0819765467
H                39.4067119647       52.0566657077       15.1681725086
H                41.2602655429       48.5786640113       17.9010124773
H                31.5644704474       51.2023802409       16.3793936074
H                28.9818052693       50.6939094284       14.1204141515
H                26.1673862985       44.7103728821       17.9444413262
H                28.0807560113       42.2935292901       16.2735843442
H                25.2498563601       44.0872458336       13.1955188709
H                38.2183583332       39.7608596711       22.3953335181
H                29.9807225925       32.7476546225       16.3111680220
H                33.1210147917       31.9694163605       15.4516889308
H                30.3709606623       29.9465860324       12.4774963622
