 274 
 
N               105.0921566865       65.6030834942      170.0379751992
C               105.4010546035       66.9623372763      169.6113414180
C               106.9263844640       67.0530269416      169.4925612384
O               107.4729222561       67.4743800236      168.4816979302
C               104.7952687175       67.9751917492      170.5847718964
C               105.1700968778       69.4491522778      170.3576456699
C               106.5540293937       69.7867777823      170.9105744684
C               105.0632845491       69.8707312422      168.8943998850
H               104.4572367921       65.4423923272      170.8129262510
H               105.0077728134       67.1239464362      168.5995964850
H               103.7104350937       67.8796345634      170.5169617443
H               105.0984908270       67.7055059007      171.5951772470
H               104.4489814649       70.0389426383      170.9337291874
H               106.7138135957       70.8621611554      170.8798453714
H               106.6489096555       69.4623175017      171.9442261731
H               107.3416541040       69.3211569996      170.3264221430
H               105.2148021883       70.9447130722      168.8175997453
H               105.8283541206       69.3832674188      168.2966182282
H               104.0825005368       69.6347881303      168.4889946741
N               109.3654279807       68.0661060129      166.2701727172
C               110.4629427879       69.0089980692      166.2506262607
C               111.7183189519       68.3335295146      165.6965028999
O               112.4300912013       68.8868703290      164.8604722169
C               110.7623072365       69.6063767749      167.6337139915
C               109.4986359703       70.1180121480      168.3395255190
C               111.8114013784       70.7076691701      167.4925141304
C               108.6693362985       71.1299379141      167.5581288095
H               109.0804459433       67.7003750771      167.1703942936
H               110.2180697045       69.8202955107      165.5526897399
H               111.1891477455       68.8077837768      168.2523602005
H               108.8669551565       69.2626960002      168.5781240426
H               109.8164834795       70.5650607777      169.2838094845
H               112.0384732421       71.1336241304      168.4660524901
H               112.7329454985       70.3045561446      167.0779637788
H               111.4619343904       71.4997747488      166.8350224209
H               107.8691127003       71.4970997565      168.1946222031
H               109.2638889992       71.9824019372      167.2426654157
H               108.2221256712       70.6691302265      166.6825878245
N               111.3162054622       68.4590992441      162.2509318407
C               111.4168134307       69.7730964313      161.6510008470
C               112.8863762736       70.0703900279      161.3428692727
O               113.2352907018       70.7298990308      160.3719264779
C               110.8133382933       70.8349600351      162.5727745860
C               109.2973714009       70.9764041654      162.3662308767
C               108.6173430673       71.5618878562      163.6010824191
C               109.0211741498       71.8490674482      161.1441761288
H               110.6281228560       68.2959752495      162.9871788545
H               110.9101744470       69.7799711143      160.6718443436
H               111.0449640956       70.5475770357      163.5984251334
H               111.2922887818       71.7935788094      162.3663621013
H               108.8824888961       69.9794374237      162.1775918379
H               107.5640685769       71.7375547978      163.3981006217
H               108.6885903669       70.8653382309      164.4292186731
H               109.0759438224       72.5051489866      163.8848138693
H               107.9556302436       71.9089684210      160.9304797360
H               109.4021735638       72.8565424932      161.2975287355
H               109.4957169799       71.4407277850      160.2517703708
N               104.7515572378       72.8420574116      155.8555983731
C               105.0222991515       73.7101961616      156.9885687029
C               103.6956382091       74.0796639215      157.6273033916
O               103.5534477989       74.0594027522      158.8435352768
C               105.8571503904       74.9565031252      156.6528269657
C               105.0929725481       76.0158473526      155.8647265114
C               106.3806762242       75.5625710125      157.9553548369
H               105.2633528758       72.9915269483      155.0016002690
H               105.5776883442       73.1093654034      157.7270200869
H               106.7106456431       74.6116095341      156.0563532253
H               105.7991981785       76.7370471037      155.4625653031
H               104.5595465475       75.5709188718      155.0322841462
H               104.3901845700       76.5331008379      156.5117372056
H               107.0043676055       76.4225812479      157.7314741924
H               105.5501506465       75.8718166996      158.5864158282
H               106.9814747732       74.8387150489      158.5042575611
N               102.7062273129       74.4335643549      156.8092475333
C               101.4141410692       74.8086685901      157.3509108907
C               101.0183688872       73.8633104816      158.4920294450
O               100.6674816382       74.2539690536      159.5924385148
C               100.3422587797       74.7333132829      156.2501816297
O                99.0783695260       74.5883712581      156.8562708035
H               102.8365659906       74.3971553099      155.8063301933
H               101.4692409577       75.8193071468      157.7758895256
H               100.3976767157       75.6415884758      155.6428475507
H               100.5685457079       73.8648299381      155.6160423682
H                98.3872670410       74.8394498934      156.2296622912
N               100.9807347741       72.5767934503      158.1169546447
C               100.5822472556       71.5248207692      159.0308380513
C               101.3834441145       71.5592640527      160.3392113555
O               100.8186097121       71.4156637839      161.4142889314
C               100.7638679529       70.1695045786      158.3530914278
C                99.9616622271       69.9357225601      157.0755423781
O               100.1053492008       68.9007351862      156.4400171080
N                99.0400441273       70.8556537056      156.7422268930
H               101.4541966116       72.2948507735      157.2681582166
H                99.5340931459       71.6870158740      159.3179558280
H               101.8149712427       70.0436904275      158.0764664818
H               100.5214331336       69.3635956812      159.0471448409
H                98.5875034324       70.7276155082      155.8493198880
H                99.0875194946       71.7986632494      157.0951023917
N               102.6991303983       71.7171165318      160.2039201637
C               103.5940920863       71.7228545796      161.3367552211
C               103.5129285954       73.0033509663      162.1746567816
O               103.7123442978       72.9491156651      163.3877780981
C               105.0423277989       71.5245787845      160.8890470336
C               105.3104608197       70.1210876940      160.3704848886
S               105.1549959822       68.8866078862      161.6880563012
C               106.1069505419       67.5271613858      160.9751761817
H               103.1070371798       71.8374447325      159.2863042783
H               103.3204564602       70.8944187925      162.0065976927
H               105.2810509144       72.2332742658      160.0912166894
H               105.7040096182       71.7195898610      161.7364862626
H               104.6265223612       69.8579438465      159.5595953351
H               106.3259157535       70.0516203050      159.9753695653
H               106.0070431626       66.6831245961      161.6474360037
H               105.7082708108       67.2884217495      159.9912141837
H               107.1496765981       67.8252846413      160.8773465723
N               103.2416023066       74.1349131398      161.5391633067
C               103.0175070442       75.3729394675      162.2626662749
C               101.8360246473       75.1514231647      163.2161480664
O               101.9108379341       75.3579494884      164.4196156714
C               102.7257454305       76.5034505327      161.2621571642
O               103.8263770762       76.7833865635      160.4383474086
H               103.2243695810       74.1824086923      160.5237720793
H               103.8946959248       75.6265175534      162.8723642862
H               101.9231717082       76.1903848491      160.5895103087
H               102.4033713836       77.3944557161      161.8139375495
H               104.5182036661       77.2150388948      160.9550039532
N               100.7487732963       74.6722211506      162.6074201064
C                99.5340817071       74.3792568101      163.3454296128
C                99.8594832604       73.4197284599      164.4931371572
O                99.5283246085       73.6724232154      165.6453174247
C                98.4790249137       73.8135650500      162.3914183505
C                97.1732218776       73.4461671482      163.1140939161
C                97.0531770432       71.9435761946      163.3687637852
N                96.9435588086       71.2534459134      162.0962043852
C                97.4369662783       70.0663244329      161.7634503434
N                98.1089945862       69.3161156895      162.6290024923
N                97.2766632910       69.6334614528      160.5100573769
H               100.7320902371       74.5356478343      161.6016420654
H                99.1663063082       75.3006396842      163.8171176748
H                98.2900995638       74.5760691022      161.6358777359
H                98.8975543284       72.9388949102      161.8908700118
H                97.1241156578       73.9648353199      164.0711817853
H                96.3174024502       73.7762206482      162.5260527839
H                97.9351767566       71.6019285715      163.9092229957
H                96.1649746414       71.7456776695      163.9772871200
H                96.3864750871       71.7431525472      161.4075330590
H                98.2285685326       69.5974136551      163.5866437879
H                98.4932424974       68.4293490640      162.3473558143
H                96.7070608558       70.1446009284      159.8548532367
H                97.5596994124       68.7030373238      160.2477681255
N               100.4839076595       72.2941816192      164.1424095051
C               100.8134179987       71.2700174469      165.1200820843
C               101.4896145526       71.8784542419      166.3513373659
O               101.1054010389       71.6160735341      167.4858691500
C               101.7161988852       70.2189284683      164.4848690068
H               100.7162011989       72.0954303281      163.1699451289
H                99.8862733495       70.8095184684      165.4896867109
H               101.8556053020       69.3864948258      165.1673620651
H               101.2682196237       69.8579140568      163.5635057434
H               102.6901379250       70.6466733108      164.2615521587
N               102.5442558551       72.6537896536      166.0937796256
C               103.3037383498       73.2541430410      167.1704586675
C               102.3916450180       74.0603595330      168.0954521033
O               102.4256693546       73.9007770553      169.3111063453
C               104.4128115282       74.1472410155      166.6123361373
C               105.6099392832       73.3124166827      166.1433802517
C               106.5814226878       74.1824328682      165.3648369326
O               107.6066786026       74.6483001554      165.8356221552
N               106.1854213405       74.4056463054      164.1019115479
H               102.8423977641       72.8426804375      165.1416074759
H               103.7355457396       72.4596783742      167.7944397535
H               104.0011241006       74.7290521455      165.7856607582
H               104.7399284804       74.8446093577      167.3847993435
H               106.1305964479       72.8927613463      167.0029293253
H               105.2647247946       72.5050611419      165.4985957461
H               105.3327234180       73.9750389496      163.7689077020
H               106.7530826926       74.9708480067      163.4926382601
N               101.6095867475       74.9616583057      167.4997591521
C               100.7518101841       75.8156133475      168.3007104675
C                99.7900174594       74.9418421701      169.1162781468
O                99.6177237413       75.1086746126      170.3200178859
C                99.9843935191       76.8248611331      167.4319405013
C               100.9732976513       77.7586117254      166.7205497615
C                99.0062092798       77.6081378481      168.3062351752
C               100.2904611214       78.7891964846      165.8265994430
H               101.5872654615       75.0491761079      166.4901726863
H               101.3714484250       76.3546298308      169.0309721545
H                99.4220227324       76.2597582600      166.6815050027
H               101.5761751092       78.2739014881      167.4712879954
H               101.6452804562       77.1595899422      166.1047712096
H                98.3805377709       78.2547329665      167.7000873967
H                98.3586938961       76.9363574602      168.8641827816
H                99.5489671266       78.2195737205      169.0244041646
H               101.0377253700       79.3276336631      165.2495661426
H                99.6051786784       78.3021511693      165.1378240354
H                99.7373068410       79.5152570938      166.4149228753
N                99.1533879301       74.0172659735      168.4025606870
C                98.1611161437       73.1242891879      168.9758071407
C                98.7098847934       72.4954156569      170.2545479433
O                98.0818934118       72.5508677176      171.3098702624
C                97.7789393621       72.1016153003      167.8995861412
C                96.6846360696       71.0848420461      168.2645593257
C                97.2267470457       69.9173462773      169.0855463034
C                95.5025388016       71.7334441147      168.9800902846
H                99.3557937678       73.9103391878      167.4122537330
H                97.2861640943       73.7136585970      169.2788765138
H                97.4428765357       72.6862127420      167.0408687716
H                98.6877620551       71.5689556492      167.6151171414
H                96.3175733255       70.6726912540      167.3181823655
H                96.4466082847       69.1779704682      169.2490843301
H                98.0531629015       69.4317427047      168.5726857476
H                97.5730925774       70.2448994452      170.0620723093
H                94.6895589437       71.0185374450      169.0803399738
H                95.7887195067       72.0507530131      169.9803675464
H                95.1367579976       72.5962882277      168.4291473544
N                99.8852951871       71.8788947847      170.1285689878
C               100.4741018327       71.1290393913      171.2173323985
C               101.0097184822       72.0365218321      172.3262708082
O               101.0030875489       71.6701305493      173.4980277146
C               101.5944586952       70.2302419842      170.6926544873
C               101.0588624243       69.0318443081      169.8983822075
C               100.4248000224       67.9816837237      170.8029686530
O                99.5069345496       68.2423051378      171.5688459878
N               100.9412856516       66.7501882752      170.6928968637
H               100.3616796815       71.8528602295      169.2316856567
H                99.7034021730       70.4974952886      171.6804870617
H               102.2434702080       70.8284130241      170.0509385009
H               102.1744725809       69.8740799681      171.5452253386
H               100.2976078353       69.3837700778      169.2011787222
H               101.8698539623       68.5870743392      169.3243412114
H               101.7045124167       66.5308039289      170.0765903237
H               100.5753840706       65.9785040665      171.2365505948
N               101.4892034826       73.2166803124      171.9367184515
C               101.9812845974       74.1889340105      172.8973599914
C               100.8220716773       74.6042528051      173.8131713336
O               100.9028919983       74.5745293100      175.0366369031
C               102.5879300497       75.3746967480      172.1476118452
C               103.4760109966       76.2361792981      173.0480799458
C               104.0712018911       77.3719329677      172.2299658590
O               103.6404557324       78.5142996321      172.2624637058
N               105.0822845189       77.0043730239      171.4277571048
H               101.5711769126       73.4523089624      170.9527429030
H               102.7348774955       73.7099068732      173.5369691939
H               103.1748965205       74.9769599225      171.3182752986
H               101.7839733772       75.9844618188      171.7323474245
H               102.8857677479       76.6584661766      173.8618302978
H               104.2750510621       75.6290299419      173.4740960291
H               105.4595852702       76.0728974695      171.4460028911
H               105.5379954968       77.7023858320      170.8610158363
N                99.7178948019       74.9821794208      173.1678978315
C                98.4825193116       75.2227361841      173.8901089520
C                98.1815395248       73.9888752761      174.7478865795
O                97.9568936225       74.0722615092      175.9510911567
C                97.3509774826       75.5073202056      172.9139581717
H                99.6778842862       74.9762398255      172.1534471239
H                98.6253403205       76.0639928204      174.5809704843
H                96.4217015026       75.6562463404      173.4560935135
H                97.5781880649       76.4033279745      172.3432916102
H                97.2335873604       74.6715299269      172.2287829457
N                98.2080017286       72.8430138267      174.0722411721
C                97.9572851301       71.5626735382      174.6900849468
C                98.5935957030       71.4730389139      176.0699806706
O                97.9186484449       71.2265415341      177.0619817861
H                98.2889280653       72.8405905280      173.0567162491
H                96.8810060130       71.3886391030      174.8059748259
H                98.3850222160       70.7855165497      174.0540659424
H               104.7170498783       65.1519281532      169.3555136686
H               107.5053539164       66.7632825433      170.2546915139
H               108.6295271616       68.4545134708      165.9272592716
H               111.9765045236       67.4209953343      166.0137119482
H               111.1108366929       67.8542789682      161.6168844430
H               113.6040980797       69.7215473427      161.9455169227
H               104.9278948363       71.9890035088      156.0818815813
H                99.5774586930       71.6163116418      176.1771559585
