 419 
 
N               149.7510000000       70.9280000000      105.7120000000
C               149.6620000000       70.0090000000      104.5790000000
C               149.1030000000       70.6880000000      103.3480000000
O               149.6300000000       70.5290000000      102.2370000000
C               148.8360000000       68.7760000000      104.9760000000
C               149.5080000000       67.9790000000      106.1030000000
C               148.5790000000       66.8780000000      106.5850000000
C               150.8070000000       67.3760000000      105.5800000000
H               149.3350000000       70.6570000000      106.4150000000
H               150.5580000000       69.7180000000      104.3460000000
H               147.9520000000       69.0570000000      105.2610000000
H               148.7160000000       68.2040000000      104.2020000000
H               149.7020000000       68.5690000000      106.8480000000
H               149.0100000000       66.3790000000      107.2960000000
H               147.7570000000       67.2710000000      106.9180000000
H               148.3760000000       66.2800000000      105.8490000000
H               151.2370000000       66.8710000000      106.2870000000
H               150.6130000000       66.7870000000      104.8340000000
H               151.3980000000       68.0860000000      105.2850000000
N               148.0360000000       71.4500000000      103.5520000000
C               147.3920000000       72.1730000000      102.4700000000
C               148.4420000000       73.0640000000      101.7760000000
O               148.5280000000       73.1530000000      100.5520000000
C               146.2810000000       73.0620000000      103.0980000000
C               145.0390000000       72.2780000000      103.4910000000
C               143.9910000000       73.1590000000      104.1560000000
O               143.9020000000       73.2630000000      105.3770000000
N               143.1410000000       73.8070000000      103.3360000000
H               147.6670000000       71.5610000000      104.3210000000
H               147.0130000000       71.5430000000      101.8380000000
H               146.6360000000       73.5080000000      103.8830000000
H               146.0330000000       73.7540000000      102.4660000000
H               144.6570000000       71.8630000000      102.7020000000
H               145.2880000000       71.5620000000      104.0960000000
H               143.2180000000       73.7230000000      102.4830000000
H               142.5220000000       74.3050000000      103.6640000000
N               149.3230000000       73.6490000000      102.5840000000
C               150.4040000000       74.4990000000      102.0860000000
C               151.2870000000       73.6320000000      101.1450000000
O               151.6330000000       74.0640000000      100.0360000000
C               151.2430000000       75.0710000000      103.2510000000
C               152.2910000000       76.0890000000      102.7940000000
C               151.6180000000       77.2860000000      102.1530000000
N               152.4760000000       78.4860000000      102.0880000000
C               152.5190000000       79.3350000000      101.0670000000
N               151.7560000000       79.1160000000      100.0050000000
N               153.2020000000       80.4600000000      101.1640000000
H               149.3110000000       73.5640000000      103.4400000000
H               150.0380000000       75.2570000000      101.6040000000
H               150.6500000000       75.4920000000      103.8930000000
H               151.6880000000       74.3420000000      103.7110000000
H               152.8230000000       76.3770000000      103.5520000000
H               152.8990000000       75.6750000000      102.1620000000
H               151.3400000000       77.0480000000      101.2550000000
H               150.8140000000       77.5000000000      102.6510000000
H               152.9860000000       78.6470000000      102.7610000000
H               151.2390000000       78.4290000000       99.9810000000
H               151.7780000000       79.6610000000       99.3400000000
H               153.6220000000       80.6470000000      101.8910000000
H               153.2270000000       81.0060000000      100.5000000000
N               151.6070000000       72.4110000000      101.5920000000
C               152.4200000000       71.4820000000      100.8360000000
C               151.8460000000       71.3080000000       99.4420000000
O               152.5530000000       71.5290000000       98.4600000000
C               152.5220000000       70.1200000000      101.5300000000
C               153.1330000000       69.0610000000      100.5950000000
C               153.3170000000       70.1870000000      102.8180000000
H               151.3490000000       72.1060000000      102.3540000000
H               153.3140000000       71.8530000000      100.7780000000
H               151.6150000000       69.8600000000      101.7530000000
H               153.1860000000       68.2110000000      101.0590000000
H               152.5760000000       68.9650000000       99.8070000000
H               154.0230000000       69.3390000000      100.3290000000
H               153.3550000000       69.3060000000      103.2210000000
H               154.2170000000       70.4940000000      102.6270000000
H               152.8880000000       70.8040000000      103.4310000000
N               150.5660000000       70.9480000000       99.3680000000
C               149.8730000000       70.7440000000       98.0850000000
C               150.2500000000       71.7640000000       97.0270000000
O               150.6470000000       71.4010000000       95.9320000000
C               148.3640000000       70.7990000000       98.3000000000
C               147.8400000000       69.7440000000       99.2560000000
C               146.3330000000       69.6890000000       99.1810000000
N               145.7980000000       68.5250000000       99.8910000000
C               144.6650000000       67.9240000000       99.5590000000
N               143.9190000000       68.3320000000       98.5390000000
N               144.2530000000       66.9220000000      100.2870000000
H               150.0700000000       70.8140000000      100.0580000000
H               150.1510000000       69.8730000000       97.7610000000
H               148.1260000000       71.6760000000       98.6390000000
H               147.9200000000       70.6960000000       97.4440000000
H               148.2150000000       68.8780000000       99.0320000000
H               148.1200000000       69.9490000000      100.1620000000
H               145.9600000000       70.5000000000       99.5610000000
H               146.0560000000       69.6570000000       98.2520000000
H               146.2430000000       68.2150000000      100.5590000000
H               144.1670000000       69.0080000000       98.0680000000
H               143.1880000000       67.9200000000       98.3490000000
H               144.7150000000       66.6650000000      100.9660000000
H               143.5200000000       66.5190000000      100.0880000000
N               150.2210000000       73.0330000000       97.4040000000
C               150.5620000000       74.1390000000       96.4980000000
C               151.9680000000       73.9950000000       95.9370000000
O               152.2050000000       74.1390000000       94.7400000000
C               150.4710000000       75.4550000000       97.2690000000
C               149.0910000000       75.7410000000       97.8570000000
C               149.1410000000       76.9570000000       98.7580000000
O               149.2010000000       78.1050000000       98.2490000000
O               149.1230000000       76.7840000000       99.9940000000
H               150.0030000000       73.2860000000       98.1960000000
H               149.9370000000       74.1250000000       95.7560000000
H               151.1220000000       75.4430000000       97.9880000000
H               150.7160000000       76.1830000000       96.6770000000
H               148.4530000000       75.8880000000       97.1420000000
H               148.7820000000       74.9710000000       98.3600000000
N               153.6990000000       71.2350000000       95.7600000000
C               153.6810000000       70.0910000000       94.8680000000
C               153.2250000000       70.4880000000       93.4610000000
O               153.7460000000       69.9720000000       92.4680000000
C               152.7670000000       69.0040000000       95.4240000000
H               153.2120000000       71.1460000000       96.4630000000
H               154.5860000000       69.7480000000       94.8060000000
H               152.7620000000       68.2450000000       94.8200000000
H               153.0900000000       68.7230000000       96.2940000000
H               151.8660000000       69.3520000000       95.5120000000
N               152.2630000000       71.4080000000       93.3980000000
C               151.7560000000       71.8700000000       92.1110000000
C               152.8350000000       72.6960000000       91.3840000000
O               153.0700000000       72.5020000000       90.1930000000
C               150.4790000000       72.7050000000       92.2860000000
C               149.9230000000       73.2340000000       90.9640000000
C               149.3780000000       71.8830000000       93.0100000000
H               151.8940000000       71.7730000000       94.0840000000
H               151.5350000000       71.0920000000       91.5760000000
H               150.7330000000       73.4700000000       92.8260000000
H               149.1200000000       73.7520000000       91.1340000000
H               150.5860000000       73.7980000000       90.5360000000
H               149.7090000000       72.4890000000       90.3810000000
H               148.5810000000       72.4270000000       93.1110000000
H               149.1660000000       71.0940000000       92.4870000000
H               149.6980000000       71.6140000000       93.8850000000
N               154.6140000000       60.8910000000      104.4100000000
C               155.0480000000       62.0720000000      103.6740000000
C               156.4300000000       62.4780000000      104.1760000000
O               156.9300000000       63.5370000000      103.8290000000
C               154.0330000000       63.2100000000      103.8310000000
C               152.7550000000       63.1440000000      102.9590000000
C               151.9410000000       64.4360000000      103.1670000000
C               153.0710000000       63.0000000000      101.4590000000
H               154.5820000000       60.9980000000      105.2630000000
H               155.1020000000       61.8710000000      102.7270000000
H               153.7610000000       63.2440000000      104.7610000000
H               154.4860000000       64.0460000000      103.6380000000
H               152.2550000000       62.3600000000      103.2340000000
H               151.1380000000       64.4040000000      102.6240000000
H               151.6960000000       64.5170000000      104.1020000000
H               152.4760000000       65.2020000000      102.9060000000
H               152.2430000000       62.9630000000      100.9560000000
H               153.5940000000       63.7610000000      101.1640000000
H               153.5750000000       62.1850000000      101.3110000000
N               158.8920000000       63.0680000000      101.2100000000
C               158.3140000000       63.7960000000      100.0790000000
C               159.3950000000       64.7680000000       99.6190000000
O               159.7180000000       65.6920000000      100.3320000000
C               157.0480000000       64.5730000000      100.5160000000
C               156.6440000000       65.7450000000       99.6020000000
C               155.9070000000       65.2530000000       98.3830000000
C               155.8000000000       66.7330000000      100.3790000000
H               158.7310000000       63.4210000000      101.9770000000
H               158.0450000000       63.1910000000       99.3700000000
H               156.3060000000       63.9500000000      100.5650000000
H               157.1910000000       64.9160000000      101.4120000000
H               157.4490000000       66.1910000000       99.2960000000
H               155.6640000000       66.0080000000       97.8250000000
H               156.4780000000       64.6510000000       97.8810000000
H               155.1040000000       64.7830000000       98.6580000000
H               155.5480000000       67.4690000000       99.8000000000
H               155.0010000000       66.2900000000      100.7050000000
H               156.3100000000       67.0730000000      101.1310000000
N               161.1400000000       66.5990000000       95.9350000000
C               160.9140000000       66.8910000000       94.5310000000
C               162.1440000000       67.5530000000       93.8850000000
O               162.0190000000       68.1920000000       92.8500000000
C               159.6620000000       67.8060000000       94.2850000000
C               158.3800000000       67.0950000000       94.7300000000
C               159.8180000000       69.1020000000       95.0700000000
H               161.4660000000       67.2520000000       96.3900000000
H               160.7470000000       66.0300000000       94.1170000000
H               159.6000000000       67.9990000000       93.3360000000
H               157.6170000000       67.6730000000       94.5710000000
H               158.2730000000       66.2740000000       94.2250000000
H               158.4370000000       66.8870000000       95.6760000000
H               159.0450000000       69.6680000000       94.9180000000
H               159.8900000000       68.9010000000       96.0160000000
H               160.6190000000       69.5640000000       94.7760000000
N               159.7740000000       61.7640000000       94.6370000000
C               158.6060000000       61.0260000000       95.0500000000
C               157.6710000000       60.9280000000       93.8510000000
O               157.2940000000       61.9480000000       93.2400000000
C               157.9010000000       61.7090000000       96.2120000000
O               158.8110000000       61.9390000000       97.2950000000
C               156.7950000000       60.8260000000       96.7400000000
H               159.7980000000       62.5730000000       94.9270000000
H               158.8690000000       60.1430000000       95.3550000000
H               157.5480000000       62.5500000000       95.8830000000
H               158.5980000000       61.4550000000       97.9480000000
H               156.3520000000       61.2700000000       97.4800000000
H               156.1520000000       60.6550000000       96.0340000000
H               157.1700000000       59.9850000000       97.0460000000
N               157.2580000000       59.7150000000       93.5040000000
C               156.3420000000       59.5460000000       92.3610000000
C               154.9440000000       59.8000000000       92.8560000000
O               154.5870000000       59.4230000000       93.9850000000
C               156.4800000000       58.1360000000       91.7270000000
C               157.8920000000       57.8290000000       91.2150000000
C               158.0080000000       56.4130000000       90.6070000000
O               158.3590000000       55.4590000000       91.3470000000
O               157.7460000000       56.2830000000       89.3960000000
H               157.4850000000       58.9870000000       93.9020000000
H               156.5630000000       60.1770000000       91.6580000000
H               156.2300000000       57.4680000000       92.3850000000
H               155.8530000000       58.0580000000       90.9910000000
H               158.1400000000       58.4860000000       90.5460000000
H               158.5240000000       57.9160000000       91.9460000000
N               154.1460000000       60.4440000000       92.0020000000
C               152.7670000000       60.7930000000       92.3070000000
C               152.5570000000       61.5840000000       93.6010000000
O               151.6740000000       61.2560000000       94.4300000000
C               151.8470000000       59.5460000000       92.2990000000
C               151.7110000000       58.9480000000       90.9090000000
O               152.7150000000       58.7360000000       90.1930000000
N               150.5020000000       58.7000000000       90.4840000000
H               154.3990000000       60.6920000000       91.2180000000
H               152.5190000000       61.3950000000       91.5880000000
H               152.2040000000       58.8780000000       92.9040000000
H               150.9690000000       59.7900000000       92.6320000000
H               150.3810000000       58.3830000000       89.6940000000
H               149.8270000000       58.8540000000       90.9940000000
N               153.2940000000       62.7220000000       93.7760000000
C               153.1920000000       63.5480000000       94.9950000000
C               151.7430000000       63.8360000000       95.4210000000
O               151.3480000000       63.4070000000       96.5130000000
C               153.9460000000       64.8300000000       94.5770000000
C               153.9190000000       64.8450000000       93.0980000000
C               154.1150000000       63.3910000000       92.7690000000
H               153.5600000000       63.1110000000       95.7780000000
H               153.5180000000       65.6210000000       94.9410000000
H               154.8570000000       64.8220000000       94.9090000000
H               153.0790000000       65.1850000000       92.7530000000
H               154.6230000000       65.4000000000       92.7270000000
H               153.8220000000       63.1820000000       91.8680000000
H               155.0470000000       63.1300000000       92.8320000000
N               151.0000000000       64.5050000000       94.5820000000
C               149.5910000000       64.8860000000       94.8460000000
C               148.7300000000       63.7150000000       95.3600000000
O               147.9000000000       63.9110000000       96.2680000000
C               148.9330000000       65.4920000000       93.5930000000
C               149.5980000000       66.8030000000       93.1680000000
C               149.0710000000       67.2530000000       91.8660000000
C               149.3980000000       67.8570000000       94.2390000000
H               151.2860000000       64.7690000000       93.8150000000
H               149.6290000000       65.5520000000       95.5500000000
H               148.9820000000       64.8550000000       92.8630000000
H               147.9920000000       65.6500000000       93.7680000000
H               150.5510000000       66.6550000000       93.0630000000
H               149.5020000000       68.0840000000       91.6120000000
H               149.2500000000       66.5770000000       91.1930000000
H               148.1140000000       67.3940000000       91.9350000000
H               149.8220000000       68.6840000000       93.9620000000
H               148.4490000000       68.0090000000       94.3710000000
H               149.7950000000       67.5530000000       95.0700000000
N               148.8940000000       62.5440000000       94.7620000000
C               148.1360000000       61.3720000000       95.1780000000
C               148.4440000000       61.0960000000       96.6450000000
O               147.5750000000       61.2550000000       97.5130000000
C               148.4810000000       60.1460000000       94.3320000000
C               147.5210000000       59.8550000000       93.1800000000
C               147.3830000000       61.0430000000       92.2700000000
O               148.2090000000       61.2410000000       91.3930000000
N               146.3350000000       61.8420000000       92.4630000000
H               149.4400000000       62.4060000000       94.1120000000
H               147.1900000000       61.5500000000       95.0550000000
H               149.3730000000       60.2630000000       93.9680000000
H               148.5110000000       59.3690000000       94.9120000000
H               147.8420000000       59.0930000000       92.6730000000
H               146.6510000000       59.6140000000       93.5340000000
H               145.7740000000       61.6710000000       93.0910000000
H               146.2200000000       62.5290000000       91.9590000000
N               149.6950000000       60.8160000000       96.9650000000
C               150.0900000000       60.5260000000       98.3460000000
C               149.6420000000       61.6200000000       99.3420000000
O               149.0870000000       61.3070000000      100.3870000000
C               151.6000000000       60.2770000000       98.4350000000
C               152.0820000000       59.2510000000       97.4570000000
C               153.4980000000       58.8300000000       97.7370000000
C               153.9470000000       57.8700000000       96.6740000000
N               155.4280000000       57.9420000000       96.4700000000
H               150.3410000000       60.7870000000       96.3980000000
H               149.6260000000       59.7160000000       98.6080000000
H               152.0700000000       61.1110000000       98.2790000000
H               151.8230000000       59.9890000000       99.3340000000
H               151.5020000000       58.4750000000       97.4910000000
H               152.0240000000       59.6100000000       96.5580000000
H               154.0800000000       59.6060000000       97.7540000000
H               153.5560000000       58.4120000000       98.6110000000
H               153.6960000000       56.9670000000       96.9230000000
H               153.4930000000       58.0710000000       95.8410000000
H               155.7450000000       57.1270000000       96.3060000000
H               155.6070000000       58.4740000000       95.7790000000
H               155.8130000000       58.2680000000       97.2030000000
N               149.7970000000       62.8800000000       98.9330000000
C               149.4160000000       64.0550000000       99.7350000000
C               147.9560000000       63.9770000000      100.1880000000
O               147.6400000000       64.1620000000      101.3650000000
C               149.6610000000       65.4040000000       98.9890000000
C               151.1680000000       65.6780000000       98.8070000000
C               149.0090000000       66.5570000000       99.7190000000
C               151.4360000000       66.9150000000       98.0420000000
H               150.1330000000       63.0840000000       98.1680000000
H               149.9930000000       64.0380000000      100.5140000000
H               149.2560000000       65.3250000000       98.1110000000
H               151.5880000000       65.7440000000       99.6790000000
H               151.5770000000       64.9260000000       98.3510000000
H               149.1760000000       67.3820000000       99.2360000000
H               148.0530000000       66.4040000000       99.7770000000
H               149.3800000000       66.6260000000      100.6130000000
H               152.3940000000       67.0410000000       97.9560000000
H               151.0390000000       66.8430000000       97.1600000000
H               151.0510000000       67.6740000000       98.5080000000
N               147.0710000000       63.7410000000       99.2150000000
C               145.6280000000       63.6240000000       99.5190000000
C               145.3830000000       62.4890000000      100.4990000000
O               144.6680000000       62.6490000000      101.4820000000
C               144.8350000000       63.3720000000       98.2410000000
C               144.4760000000       64.6370000000       97.5380000000
O               145.4000000000       65.3850000000       97.1000000000
O               143.2430000000       64.8910000000       97.4070000000
H               147.2750000000       63.6460000000       98.3850000000
H               145.3340000000       64.4580000000       99.9180000000
H               145.3550000000       62.8100000000       97.6460000000
H               144.0250000000       62.8830000000       98.4570000000
N               146.0510000000       61.3640000000      100.2590000000
C               145.9010000000       60.1890000000      101.1040000000
C               146.1260000000       60.5670000000      102.5650000000
O               145.3570000000       60.1940000000      103.4600000000
C               146.8510000000       59.0680000000      100.6890000000
H               146.6000000000       61.2630000000       99.6050000000
H               144.9960000000       59.8560000000      100.9950000000
H               146.7240000000       58.3030000000      101.2720000000
H               146.6660000000       58.8100000000       99.7730000000
H               147.7680000000       59.3780000000      100.7580000000
N               147.2340000000       61.2630000000      102.8270000000
C               147.6050000000       61.6750000000      104.1650000000
C               146.4530000000       62.4460000000      104.8140000000
O               146.0270000000       62.1280000000      105.9180000000
C               148.8720000000       62.5040000000      104.1190000000
H               147.7920000000       61.5080000000      102.2210000000
H               147.7810000000       60.8910000000      104.7080000000
H               149.1140000000       62.7760000000      105.0180000000
H               149.5910000000       61.9760000000      103.7370000000
H               148.7240000000       63.2910000000      103.5720000000
N               145.9380000000       63.4660000000      104.1240000000
C               144.8320000000       64.2620000000      104.6210000000
C               143.5830000000       63.4600000000      104.8710000000
O               142.8640000000       63.7410000000      105.8280000000
C               144.5390000000       65.4420000000      103.6950000000
C               145.5460000000       66.5740000000      103.8930000000
C               145.2730000000       67.8030000000      103.0070000000
C               145.4330000000       67.1020000000      105.3450000000
H               146.2270000000       63.7110000000      103.3520000000
H               145.1170000000       64.6030000000      105.4830000000
H               144.5630000000       65.1440000000      102.7720000000
H               143.6430000000       65.7720000000      103.8630000000
H               146.4110000000       66.1950000000      103.6720000000
H               145.9440000000       68.4820000000      103.1800000000
H               145.3090000000       67.5430000000      102.0730000000
H               144.3940000000       68.1590000000      103.2090000000
H               146.0700000000       67.8210000000      105.4780000000
H               144.5350000000       67.4330000000      105.5000000000
H               145.6240000000       66.3820000000      105.9670000000
N               143.3050000000       62.4890000000      103.9990000000
C               142.1500000000       61.6060000000      104.1520000000
C               142.2260000000       60.9880000000      105.5390000000
O               141.2560000000       61.0120000000      106.3080000000
C               142.1800000000       60.4540000000      103.1070000000
H               143.7820000000       62.3250000000      103.3020000000
H               141.3370000000       62.1200000000      104.0230000000
H               141.4050000000       59.8850000000      103.2300000000
H               142.1670000000       60.8280000000      102.2120000000
H               142.9880000000       59.9300000000      103.2260000000
N               143.4270000000       60.5240000000      105.8860000000
C               143.7180000000       59.9340000000      107.1990000000
C               143.3900000000       60.9030000000      108.3310000000
O               142.7570000000       60.5180000000      109.2970000000
C               145.1810000000       59.4930000000      107.2910000000
C               145.6800000000       58.5490000000      106.1870000000
C               147.2110000000       58.3410000000      106.2700000000
O               147.7760000000       58.1790000000      107.3470000000
N               147.8850000000       58.3380000000      105.1240000000
H               144.1070000000       60.5420000000      105.3590000000
H               143.1520000000       59.1520000000      107.2950000000
H               145.7390000000       60.2870000000      107.2870000000
H               145.3140000000       59.0570000000      108.1470000000
H               145.2310000000       57.6930000000      106.2640000000
H               145.4480000000       58.9130000000      105.3180000000
H               147.4690000000       58.4530000000      104.3800000000
H               148.7370000000       58.2210000000      105.1270000000
H               150.6141924743       71.0402655924      105.9406814139
H               152.7298993025       73.7774467522       96.5470656008
H               154.5408310872       71.3830141040       96.0418017843
H               153.3490662991       73.3949560106       91.8811884305
H               153.7868999986       60.6575874711      104.1427469756
H               156.9343208313       61.8752741772      104.7943705051
H               158.5599437814       62.2317423163      101.2302917275
H               159.8356007095       64.6417257221       98.7302222879
H               160.3602766885       66.3746724840       96.3244980399
H               163.0436331675       67.4602086259       94.3116730890
H               160.5134474807       61.3512877456       94.9417720762
H               143.6949641651       61.8539575273      108.2792637524
