283
Properties=species:S:1:pos:R:3 pbc="F F F"
N      36.74800000      21.60200000      14.43200000 
C      36.84700000      20.62600000      15.47800000 
C      35.58700000      19.80500000      15.54500000 
O      34.60200000      20.05000000      14.83700000 
C      37.13800000      21.29700000      16.83200000 
C      38.49900000      20.91800000      17.36700000 
S      38.92000000      22.03600000      18.79900000 
C      40.04700000      20.93600000      19.77800000 
H      35.89700000      22.13000000      14.36500000 
H      37.65600000      19.95800000      15.23500000 
H      37.07500000      22.36000000      16.68400000 
H      36.38800000      21.03100000      17.54800000 
H      38.49500000      19.90800000      17.74200000 
H      39.26100000      21.02000000      16.61700000 
H      40.30400000      21.46500000      20.67700000 
H      39.53400000      20.02300000      20.01500000 
H      40.93000000      20.73600000      19.20000000 
N      35.59400000      18.79500000      16.41200000 
C      34.45100000      17.95200000      16.62600000 
C      34.35800000      17.64700000      18.09600000 
O      35.36800000      17.47200000      18.78800000 
C      34.53500000      16.65400000      15.84500000 
O      35.70900000      15.99000000      16.31500000 
C      34.61500000      16.87800000      14.36400000 
H      36.39500000      18.60800000      16.96700000 
H      33.57900000      18.48800000      16.30400000 
H      33.65900000      16.07000000      16.09000000 
H      35.80100000      15.10400000      15.97800000 
H      34.74000000      15.92700000      13.86200000 
H      33.71600000      17.33300000      13.98700000 
H      35.46100000      17.50400000      14.13000000 
N      33.11700000      17.58400000      18.56900000 
C      32.78700000      17.42000000      19.96100000 
C      31.71700000      16.36000000      20.03700000 
O      30.89500000      16.25600000      19.11000000 
C      32.28400000      18.75400000      20.53400000 
C      33.19000000      19.89300000      20.15300000 
C      34.56300000      19.75000000      20.21200000 
C      32.68000000      21.09900000      19.69500000 
C      35.41000000      20.75500000      19.81100000 
C      33.52200000      22.13100000      19.32200000 
C      34.88400000      21.95800000      19.39100000 
O      35.68900000      23.02100000      19.07100000 
H      32.35100000      17.71600000      17.95900000 
H      33.66000000      17.09900000      20.49200000 
H      31.29200000      18.94200000      20.15500000 
H      32.20400000      18.65500000      21.60600000 
H      34.98600000      18.83000000      20.52800000 
H      31.62500000      21.24500000      19.64700000 
H      36.46700000      20.61400000      19.83500000 
H      33.12900000      23.06900000      18.99800000 
H      36.62400000      22.84500000      19.17300000 
N      31.70700000      15.56600000      21.10400000 
C      30.73100000      14.52700000      21.24800000 
C      29.97300000      14.71900000      22.52400000 
O      30.44300000      15.36500000      23.47400000 
C      31.33300000      13.12900000      21.24000000 
O      31.86800000      12.76200000      22.50200000 
H      32.34000000      15.74700000      21.85300000 
H      30.05200000      14.60700000      20.41700000 
H      30.55400000      12.41800000      21.03500000 
H      32.07800000      13.07900000      20.46100000 
H      32.56600000      13.32300000      22.84200000 
N      28.78000000      14.16000000      22.56600000 
C      27.86700000      14.32200000      23.67900000 
C      27.31000000      12.94900000      23.92800000 
O      26.39700000      12.51600000      23.20300000 
C      26.76900000      15.29600000      23.27900000 
C      27.32800000      16.67800000      22.94000000 
C      25.71500000      15.40600000      24.36200000 
C      26.52500000      17.35100000      21.84200000 
H      28.42000000      13.72000000      21.74900000 
H      28.41300000      14.67700000      24.53000000 
H      26.31600000      14.88500000      22.38900000 
H      27.32700000      17.28300000      23.83600000 
H      28.35400000      16.60400000      22.61900000 
H      24.95900000      16.11400000      24.06600000 
H      25.23900000      14.45800000      24.55800000 
H      26.16200000      15.76300000      25.27700000 
H      26.83100000      18.38100000      21.69800000 
H      26.66100000      16.82600000      20.90900000 
H      25.46900000      17.34900000      22.07700000 
N      22.15900000       6.95100000      21.15700000 
C      21.90900000       7.84200000      20.05500000 
C      22.56900000       7.25300000      18.83800000 
O      23.33800000       6.28600000      18.91900000 
C      22.35500000       9.28700000      20.34000000 
C      23.58600000       9.45900000      21.21800000 
C      24.79600000       8.68300000      20.72500000 
C      23.93200000      10.94100000      21.27600000 
H      22.91500000       6.31400000      21.06200000 
H      20.84900000       7.85900000      19.86100000 
H      22.53100000       9.78600000      19.39800000 
H      21.53100000       9.79300000      20.82000000 
H      23.34400000       9.12300000      22.21800000 
H      25.65600000       8.91100000      21.34200000 
H      24.63800000       7.61800000      20.75200000 
H      25.02800000       8.96100000      19.70500000 
H      24.72800000      11.13400000      21.97900000 
H      24.26200000      11.27300000      20.29800000 
H      23.07200000      11.53600000      21.55900000 
N      22.25900000       7.80100000      17.66800000 
C      22.84600000       7.32700000      16.45200000 
C      24.32800000       7.57100000      16.45100000 
O      24.85200000       8.45400000      17.13400000 
C      22.25700000       8.07500000      15.26500000 
H      21.66300000       8.59300000      17.63000000 
H      22.67200000       6.26900000      16.35700000 
H      22.66600000       7.69600000      14.34400000 
H      21.18500000       7.95800000      15.25000000 
H      22.49800000       9.12300000      15.34300000 
N      25.03100000       6.82700000      15.59600000 
C      26.43400000       7.05700000      15.39200000 
C      26.66400000       8.18800000      14.42600000 
O      27.40100000       9.14300000      14.72000000 
C      27.09000000       5.79300000      14.89300000 
O      28.43800000       6.14600000      14.59400000 
H      24.57400000       6.12900000      15.05800000 
H      26.88200000       7.36000000      16.31800000 
H      27.03900000       5.04000000      15.66100000 
H      26.58600000       5.43300000      14.01000000 
H      28.94800000       5.41500000      14.26200000 
N      26.04700000       8.14100000      13.24600000 
C      26.36200000       9.11000000      12.22800000 
C      26.12500000      10.51200000      12.71600000 
O      26.84400000      11.43900000      12.33500000 
C      25.55100000       8.84600000      10.97200000 
O      26.39500000       9.18300000       9.87000000 
H      25.44900000       7.38200000      13.02600000 
H      27.40500000       9.04600000      11.97200000 
H      25.27000000       7.80500000      10.92700000 
H      24.65500000       9.44600000      10.96000000 
H      25.96600000       9.06300000       9.03200000 
N      25.08200000      10.68400000      13.52400000 
C      24.65700000      11.97700000      13.97800000 
C      25.32900000      12.37400000      15.26600000 
O      25.08800000      13.47700000      15.78000000 
C      23.15600000      11.99600000      14.23100000 
C      22.32700000      11.66800000      13.01400000 
O      22.51500000      10.53800000      12.47600000 
O      21.48400000      12.52800000      12.63600000 
H      24.41500000       9.95100000      13.59700000 
H      24.92200000      12.72000000      13.24500000 
H      22.93200000      11.27000000      15.00000000 
H      22.89000000      12.96900000      14.59500000 
N      26.14200000      11.50000000      15.84700000 
C      26.70600000      11.77800000      17.14200000 
C      27.76800000      12.84000000      17.05000000 
O      27.92200000      13.68900000      17.94000000 
C      27.27800000      10.48800000      17.68800000 
O      27.76800000      10.76400000      19.00100000 
H      26.36600000      10.64100000      15.39300000 
H      25.94400000      12.14600000      17.80200000 
H      26.49900000       9.74800000      17.71000000 
H      28.07200000      10.14200000      17.05000000 
H      28.06600000       9.97500000      19.44300000 
N      28.54100000      12.76300000      15.96900000 
C      29.63300000      13.65800000      15.72000000 
C      29.32200000      14.44900000      14.48100000 
O      28.76500000      13.90800000      13.51800000 
C      30.95000000      12.88600000      15.58200000 
C      31.06500000      12.06500000      14.33500000 
C      31.77400000      12.56300000      13.25200000 
C      30.47900000      10.81200000      14.22500000 
C      31.90300000      11.82800000      12.08900000 
C      30.59900000      10.07700000      13.06000000 
C      31.31700000      10.58000000      11.99300000 
H      28.30000000      12.12100000      15.25200000 
H      29.70900000      14.31400000      16.56800000 
H      31.76200000      13.59500000      15.61900000 
H      31.01800000      12.25500000      16.45500000 
H      32.21500000      13.53400000      13.32300000 
H      29.92800000      10.40800000      15.04700000 
H      32.46100000      12.22900000      11.26600000 
H      30.13800000       9.11100000      12.99200000 
H      31.42400000      10.00700000      11.09700000 
N      29.67600000      15.73200000      14.47800000 
C      29.43100000      16.59500000      13.34600000 
C      30.71600000      17.32100000      13.01000000 
O      31.74500000      16.68200000      12.75600000 
C      28.22900000      17.49000000      13.57300000 
C      26.92800000      16.70100000      13.74200000 
C      26.50400000      16.62900000      15.19700000 
C      25.82100000      17.32600000      12.90800000 
H      30.03400000      16.13700000      15.31200000 
H      29.22600000      15.94800000      12.51100000 
H      28.40000000      18.10500000      14.44700000 
H      28.13100000      18.14900000      12.72500000 
H      27.09500000      15.69700000      13.38700000 
H      25.59800000      16.05200000      15.30400000 
H      27.26600000      16.17300000      15.81300000 
H      26.31700000      17.62600000      15.57500000 
H      24.89800000      16.77500000      13.01700000 
H      25.64900000      18.34400000      13.22800000 
H      26.09000000      17.34200000      11.86000000 
N      30.67900000      18.64300000      13.00400000 
C      31.81600000      19.49100000      12.73300000 
C      31.46800000      20.83300000      13.32400000 
O      30.28600000      21.22500000      13.31000000 
C      32.10900000      19.65800000      11.24400000 
C      33.06200000      18.61900000      10.69000000 
C      32.41100000      17.44900000      10.03300000 
O      31.21800000      17.44100000       9.68700000 
N      33.23100000      16.42800000       9.76300000 
H      29.83500000      19.12800000      13.19500000 
H      32.68000000      19.09700000      13.23600000 
H      31.17500000      19.62900000      10.70900000 
H      32.54100000      20.63600000      11.09400000 
H      33.69300000      19.07300000       9.93400000 
H      33.71900000      18.25800000      11.46500000 
H      34.17800000      16.43700000      10.05400000 
H      32.89500000      15.63400000       9.27300000 
N      32.46700000      21.53300000      13.83800000 
C      32.24500000      22.71500000      14.62400000 
C      33.38800000      23.66400000      14.40200000 
O      34.51900000      23.23300000      14.10500000 
C      32.12500000      22.37300000      16.12200000 
C      31.46300000      23.52900000      16.85200000 
C      31.32500000      21.09800000      16.31800000 
H      33.36200000      21.10000000      13.94500000 
H      31.32600000      23.16700000      14.29900000 
H      33.12100000      22.21200000      16.51100000 
H      31.19700000      23.24400000      17.85800000 
H      32.09600000      24.39600000      16.89400000 
H      30.55700000      23.80900000      16.33800000 
H      31.18800000      20.91700000      17.37200000 
H      30.35700000      21.18500000      15.85300000 
H      31.83300000      20.24500000      15.89500000 
N      22.35500000      20.46800000      18.54100000 
C      22.28700000      19.03200000      18.65300000 
C      21.39300000      18.66200000      19.80300000 
O      20.63100000      17.68000000      19.76000000 
C      23.66600000      18.40300000      18.84200000 
C      23.96500000      17.28100000      17.85600000 
C      25.26400000      16.60700000      18.26200000 
C      22.85600000      16.24300000      17.78800000 
H      23.21700000      20.95300000      18.68600000 
H      21.81900000      18.65100000      17.76800000 
H      24.41600000      19.17200000      18.74500000 
H      23.75400000      18.01200000      19.84400000 
H      24.08400000      17.72100000      16.87600000 
H      25.51900000      15.80900000      17.58500000 
H      26.08500000      17.31100000      18.28800000 
H      25.14900000      16.18600000      19.25300000 
H      23.14800000      15.43600000      17.13500000 
H      22.66800000      15.83800000      18.77400000 
H      21.92900000      16.65400000      17.42000000 
N      35.65900000      16.61600000      23.98800000 
C      36.44200000      17.14300000      22.90500000 
C      37.29900000      16.05800000      22.32100000 
O      37.69200000      15.10800000      23.01500000 
C      37.29200000      18.30700000      23.45100000 
C      38.53700000      17.83400000      24.18200000 
C      37.64300000      19.30200000      22.36300000 
H      36.09700000      16.56000000      24.87200000 
H      35.76800000      17.51400000      22.15400000 
H      36.65400000      18.80000000      24.16800000 
H      38.99900000      18.67400000      24.67100000 
H      38.31200000      17.08500000      24.93000000 
H      39.25800000      17.41800000      23.49500000 
H      38.22800000      20.11100000      22.77900000 
H      38.22200000      18.84000000      21.58000000 
H      36.75000000      19.72200000      21.93200000 
N      37.65200000      16.18400000      21.04300000 
C      38.56100000      15.24100000      20.44200000 
C      39.96700000      15.67400000      20.76000000 
O      40.33100000      16.85000000      20.59700000 
C      38.30600000      15.15400000      18.94400000 
C      38.42100000      13.73500000      18.45200000 
O      39.31300000      13.01800000      18.99000000 
O      37.63300000      13.36500000      17.53700000 
H      37.29600000      16.93200000      20.49300000 
H      38.38300000      14.28400000      20.88900000 
H      37.32200000      15.52400000      18.72800000 
H      39.01000000      15.76900000      18.40300000 
H      37.39892288      22.21558828      14.53103950 
H      27.67344895      12.38950152      24.67289349 
H      22.34053937       7.43109483      21.89629183 
H      33.24438032      24.64950903      14.49225156 
H      22.11096120      20.71650481      17.71112626 
H      21.39838206      19.21259391      20.63775588 
H      34.93125171      17.13103468      24.11097030 
H      40.62776296      15.00976020      21.10953941 
