 393 
 
N                42.0335711855       25.6390635800       20.7444781064
C                42.1878051726       24.4622776815       19.9239145199
C                41.1067778251       24.2862476378       18.8527217075
O                41.3855925296       23.8295998392       17.7473747808
C                42.0910560246       23.2476968507       20.8551427840
C                43.1230375717       23.2257499091       21.9357940382
C                42.7946902512       22.6272232320       23.1447278021
C                44.3298815911       23.8854074082       21.8219062984
C                43.6320280261       22.7137383010       24.2396491543
C                45.1545125188       23.9947895660       22.9239774536
C                44.8245413697       23.4057405978       24.1284512932
H                41.6932175218       25.4687775067       21.6849133062
H                43.1419050427       24.5025894367       19.3824676076
H                41.1222174374       23.2951877948       21.3511430749
H                42.1269503021       22.3323725921       20.2745119202
H                41.8475798337       22.1159338806       23.2249264476
H                44.6086758908       24.3590049247       20.8930525337
H                43.3259978393       22.2943697188       25.1848261576
H                46.0271545108       24.5990562643       22.8329219900
H                45.4853880872       23.4893152398       24.9765127677
N                39.8640886523       24.6304573038       19.1882848167
C                38.7430642311       24.4164850444       18.2976121652
C                38.5664212393       25.6776422520       17.4038338706
O                38.1697674084       25.5959107360       16.2437155062
C                37.4837177191       23.9994395453       19.0739129874
C                37.4797879700       22.5956792271       19.6611449241
C                36.2769032750       21.8916735519       19.7123781350
C                38.5983073272       21.9765389263       20.2081376569
C                36.1975549063       20.6219214917       20.2511439057
C                38.5292674646       20.7120588748       20.7733463692
C                37.3319205781       20.0123159764       20.7799140228
O                37.2232644761       18.7519922628       21.2779009645
H                39.6452064256       24.7615989068       20.1768905408
H                38.9884023300       23.6118703497       17.5897744058
H                37.3375952625       24.7145288065       19.8887761169
H                36.6304472988       24.1060663420       18.3987717632
H                35.3805973233       22.3397868239       19.3085371568
H                39.5523883815       22.4685755868       20.2044530719
H                35.2629898104       20.0827971316       20.2575348454
H                39.4220334883       20.2635566745       21.1923435206
H                38.0940052859       18.4135597521       21.5276687500
N                41.1253489215       27.3491879475       15.9637933467
C                41.9647555882       27.3832565813       14.7867245019
C                41.3521165790       26.5841078936       13.6366207737
O                41.3087385500       27.0255881781       12.5004107484
C                43.3125162842       26.8045132234       15.2317538165
C                43.0112674386       26.0092598297       16.5069511610
C                41.5978654620       26.4051932374       16.9364385968
H                42.0370321934       28.4187765269       14.4449710692
H                43.7287852499       26.1816587653       14.4429422102
H                44.0201897008       27.6057374348       15.4358715808
H                43.0351914809       24.9386279328       16.3211442547
H                43.7208880284       26.2390858361       17.2964092504
H                40.9435785040       25.5366912016       16.9132743934
H                41.5704407513       26.8365707622       17.9354490269
N                40.9129150803       25.3508829365       13.9523652982
C                40.3098322726       24.5300606455       12.9221234619
C                39.1820382293       25.2903061231       12.2306575700
O                39.0713272300       25.3012353863       11.0160301648
C                39.8103560642       23.1627872645       13.4423334565
O                39.4238643987       22.4009230877       12.3151398117
C                38.7105706472       23.2288764423       14.4902755293
H                40.9431431966       25.0114059696       14.9010699010
H                41.0585356425       24.3513536564       12.1385060113
H                40.6661998713       22.6750221444       13.9126890771
H                38.8503351720       21.6847669377       12.6176708459
H                38.5791508962       22.2484604742       14.9443610977
H                38.9809290336       23.9227682382       15.2777497376
H                37.7575973804       23.5405170844       14.0677485685
N                44.7670368474       33.6020748597       14.9179821650
C                45.8724196310       33.1641163468       15.7552844023
C                46.4707875103       34.2962250525       16.5842481820
O                46.9017004593       34.0789611635       17.7077452412
C                46.9890000584       32.5242746916       14.9295362334
C                46.5868953480       31.1196489760       14.5011026716
S                47.5301514375       30.6234272392       12.9902509419
C                46.4048692582       29.3774359676       12.3503356937
H                44.8166597712       33.4134193728       13.9260966184
H                45.4987777560       32.4403172258       16.4928000919
H                47.1834381407       33.1172329535       14.0364932108
H                47.9028674166       32.4869991957       15.5196881356
H                46.7822173104       30.3878386402       15.2852109591
H                45.5378450320       31.1062706740       14.2171323155
H                46.7601321898       29.1146853425       11.3560199421
H                46.4174933473       28.4871639180       12.9780224751
H                45.4052444953       29.7991477605       12.2934220880
N                50.7575126953       24.0379879683       21.8175611309
C                49.6359443908       24.3870489549       20.9677342827
C                49.7756127342       25.7718857010       20.3525622711
O                49.2484567362       25.9818911674       19.2611612615
C                48.2368157147       24.3279732330       21.6103114203
C                48.0386354489       22.9088149800       22.1275670239
C                48.1159592039       25.4628545701       22.6238285979
H                50.6329731284       24.1358821950       22.8209541347
H                49.5854110228       23.6749793095       20.1442277330
H                47.5369308644       24.5206896469       20.7879507310
H                47.0697540086       22.7278167705       22.5794720077
H                48.1179598751       22.2295626828       21.2838098054
H                48.8220520980       22.6991030493       22.8451954726
H                47.5017923553       25.1907018466       23.4751810572
H                49.1084379733       25.7037259338       22.9689171081
H                47.7131996563       26.3534814329       22.1463743093
N                52.3412257400       25.0162729867       17.9437937074
C                51.4417467142       24.3572093974       17.0289704491
C                50.5198937321       25.2989500770       16.2639798082
O                50.1921832782       24.9478005517       15.1385275111
C                50.5895198775       23.3704612513       17.8613717589
O                51.2075092577       22.1178716281       17.9936673106
C                49.1575563724       23.1974735088       17.3974737027
H                52.3430534243       24.6474322081       18.8980315839
H                51.9933251913       23.7888954596       16.2670047006
H                50.5410580851       23.8525571794       18.8300553514
H                51.8823583636       22.1994927789       18.6850434829
H                48.7054614205       22.4376168304       18.0275220302
H                48.6139960606       24.1311239369       17.5257174094
H                49.1085329367       22.8916283317       16.3587265942
N                50.1196992974       26.4379943842       16.8502020088
C                49.2701876074       27.4329619319       16.2185749722
C                50.0738689570       28.2256548652       15.1742744596
O                49.5880988829       28.6827548795       14.1630550068
C                48.8243013081       28.5139084494       17.2204331298
C                47.5718145664       28.2109608134       17.9635148673
N                47.5090651046       28.2536577775       19.3237921033
C                46.3248545054       27.9523378339       17.4554554466
C                46.2611974279       28.0102201475       19.6259988050
N                45.4963643380       27.8311852310       18.5306796458
H                50.0691815993       26.4386747818       17.8728260661
H                48.3830825363       27.0018166293       15.7362929119
H                49.6291818219       28.6623846143       17.9359541486
H                48.6704753555       29.4360593644       16.6464630908
H                46.0001496440       27.8454735181       16.4400512973
H                45.8729387548       27.9411940765       20.6203500743
H                44.4930312199       27.6864214327       18.5356684668
N                51.3042515777       28.4794914109       15.6546656986
C                52.3268870154       29.2697399957       15.0102687431
C                52.7931585299       28.5479289571       13.7222124371
O                52.9701391175       29.1284613558       12.6663582717
C                53.5221814777       29.4437247571       15.9573309821
C                53.2220818114       30.0746035678       17.2800208075
N                52.0661243593       30.7530545506       17.6080002593
C                54.0444784940       30.2257720364       18.3664044766
C                52.2374256385       31.2222599537       18.8820977772
N                53.4193495379       30.9394911404       19.3419706563
H                51.5529900194       27.9904744013       16.5139161718
H                51.9024103712       30.2309328425       14.6918122673
H                53.9676779382       28.4623673870       16.1352797854
H                54.2881743986       30.0219522660       15.4328194275
H                51.1863464698       30.6497813651       17.1252386008
H                55.0456867624       29.8696111618       18.4916275926
H                51.4998192845       31.8009388202       19.3994520832
N                52.9732588240       27.2424351472       13.9615417470
C                53.2470477423       26.1826507880       13.0136033924
C                52.0052531327       25.9380547963       12.1399788626
O                52.1360051012       25.7325525239       10.9301139027
C                53.7709192880       24.9435009843       13.7954251859
C                53.2198230312       23.5631089660       13.4210116465
C                53.5995495601       23.0719960293       12.0082310661
N                52.4186856561       23.0052673718       11.1676612830
C                52.0290683024       22.0674287334       10.3168092056
N                52.6726520890       20.9168958323       10.1717216898
N                50.8922543137       22.2741806199        9.6358077744
H                52.8609766484       26.9475623290       14.9267921733
H                54.0151618382       26.5175546689       12.3056718388
H                54.8585227700       24.9367709194       13.7195155617
H                53.5473883194       25.1165153443       14.8480497454
H                53.6006166423       22.8492202630       14.1549798253
H                52.1339415381       23.5866291290       13.5195379823
H                54.2986066972       23.7764273009       11.5498656788
H                54.0804334722       22.0965515460       12.0651797753
H                51.9975124908       23.9226982823       11.0439209715
H                53.5096516906       20.7346029324       10.7017282354
H                52.3233856424       20.1992084537        9.5566886643
H                50.4570055292       23.1832135823        9.6709687302
H                50.6509294014       21.6937812825        8.8479952297
N                50.8412037562       25.8324508911       12.7712690604
C                49.5809793591       25.6675265617       12.0880456370
C                49.3671401624       26.7541381269       10.9652746958
O                48.5994382800       26.3908720271       10.0536502737
C                48.3703604453       25.7362030465       13.0331718406
O                47.5572038177       24.5966575273       12.9542487260
O                49.9338044072       27.8444721086       11.1130401788
H                50.7750384831       26.0499931142       13.7544636688
H                49.5623688296       24.6950869966       11.5806736104
H                48.7157140758       25.9072496658       14.0534460201
H                47.7328081171       26.5869807538       12.7734154115
H                48.0025711592       23.8431253448       13.3677202338
N                42.8270892090       21.5003816003        8.6294204108
C                41.7472074117       20.4488614234        8.6830903950
C                42.2016581169       19.1534551242        9.3791798271
O                41.5152862547       18.6350299827       10.2345334005
C                41.2278758921       20.1856059837        7.2738163244
H                43.1157265382       21.6702332003        7.6494282603
H                42.4430623774       22.3870373311        8.9923231662
H                43.6593010080       21.2648076873        9.1917099555
H                40.9228311402       20.8232651573        9.2963903379
H                40.4359199971       19.4433140011        7.3194054322
H                40.7994999512       21.0984570689        6.8676471434
H                41.9969781586       19.8165582364        6.5996542019
N                43.4171199870       18.6909770176        9.0153128198
C                43.9200693600       17.4664789898        9.6196123861
C                44.7149352537       17.8046797100       10.8876281567
O                44.3661809465       17.4021989946       11.9849010056
C                44.7822551336       16.6376333480        8.6727311482
C                44.0077274760       16.1434536621        7.4589824788
S                45.0170250204       14.9961278161        6.4523823033
C                46.2347786189       16.1895740951        5.7953033352
H                43.8879076797       19.0499362032        8.1939248106
H                43.0559056550       16.8762070761        9.9493839115
H                45.6481338527       17.2176126316        8.3535450609
H                45.1313637967       15.7672547315        9.2312308300
H                43.1369873766       15.5672966633        7.7703532733
H                43.6843584929       16.9521483188        6.8060197302
H                46.7888599752       15.6579831409        5.0298501937
H                45.7097132817       17.0293526738        5.3531500917
H                46.9123280684       16.5033615585        6.5818635590
N                45.7684289126       18.6257234446       10.7303510650
C                46.6401443149       18.8942308687       11.8652964084
C                45.8158720960       19.3521331225       13.0520733258
O                46.1192924390       19.0249570603       14.1893065593
C                47.7057225617       19.9612516437       11.5393663816
C                48.5037616960       20.3015701922       12.7973838359
C                48.6685875586       19.4552715979       10.4694400308
H                46.1571658512       18.7943218860        9.8121424131
H                47.1337656200       17.9683772723       12.1912735169
H                47.1984054680       20.8678689981       11.1985847591
H                49.2698591036       21.0334551798       12.5623517434
H                47.8623306797       20.7089310853       13.5723705130
H                48.9879745250       19.4136315451       13.1966192797
H                49.4200131670       20.2177265619       10.2941610449
H                49.1673664119       18.5575634242       10.8243573457
H                48.1703524050       19.2387726959        9.5299176907
N                44.8320819772       20.2362017672       12.8144032081
C                44.0914132677       20.6814326829       13.9733985871
C                43.3767447701       19.4810621965       14.5835058926
O                43.5976726878       19.1752136170       15.7489706428
C                43.1608042051       21.8745126016       13.7531533452
C                43.9163061542       23.0979641357       13.2166879004
C                42.5250722120       22.1958102142       15.1051127205
C                44.9705407243       23.6304434668       14.1735888330
H                44.4774119615       20.4176243084       11.8905800799
H                44.8491200478       20.9541022479       14.7198270672
H                42.3785209129       21.5993299770       13.0395499495
H                44.4128306490       22.8515767149       12.2804727517
H                43.1962419753       23.8935326864       13.0179502189
H                42.1957055589       23.2273606831       15.1445404163
H                41.6798010471       21.5488327506       15.3199729481
H                43.2466021550       22.0539754169       15.8985818455
H                45.4507239533       24.4920192175       13.7228377697
H                44.5463349865       23.9258785400       15.1258819606
H                45.7342817791       22.8831147825       14.3546674025
N                42.5475579824       18.7607105838       13.8282535304
C                41.9953381573       17.5417840812       14.3940566958
C                43.0668448063       16.7786433245       15.1816692560
O                42.7912867563       16.3306091601       16.2914054638
C                41.4059700632       16.6491829272       13.3201908622
C                40.5964050327       15.4843454429       13.9953837480
O                39.6092034079       15.8348991708       14.6673641789
O                41.0026882905       14.3267083020       13.7866630540
H                42.3821381025       18.9247779007       12.8472788554
H                41.2101262527       17.7882373590       15.1304800634
H                40.7024447162       17.2135736786       12.7038024556
H                42.2008835732       16.2234802619       12.7104237345
N                44.2896793276       16.6614303729       14.6476612033
C                45.3279296496       15.8743936837       15.2881949045
C                45.6760530090       16.4562942895       16.6444438239
O                45.7386071901       15.7462976741       17.6523500407
C                46.6175953656       15.8845204048       14.4541979508
C                46.4091947518       15.2354491000       13.1268363675
N                45.3206153868       14.4473043318       12.8912320887
C                47.1906658590       15.2780923823       12.0015862514
C                45.4377751712       14.0217138356       11.6653986642
N                46.5562566055       14.4979199736       11.0740135867
H                44.4350053434       16.7998339491       13.6558111735
H                44.9718694024       14.8456161056       15.4410262093
H                46.9652771314       16.9121451023       14.3294410296
H                47.3967539446       15.3515195890       15.0086224999
H                48.1239624376       15.7524939015       11.7854706937
H                44.7207194706       13.3952130524       11.1749924616
H                46.9198233886       14.2490865582       10.1672353730
N                46.0271359446       17.7375904039       16.6392579894
C                46.4188200349       18.3550688567       17.8836289774
C                45.2243110866       18.3472740967       18.8282332357
O                45.4195094996       18.2862925896       20.0395439685
C                47.0350251677       19.7705507046       17.7394112993
C                45.8765897639       20.7414125940       17.4873576191
C                48.1437581269       19.7424646187       16.6921192597
C                46.1541896497       22.2296803746       17.3435638749
H                45.8432145128       18.3023394153       15.8136100833
H                47.1622929583       17.6952892720       18.3541797538
H                47.4846396758       20.0226431993       18.7071528050
H                45.3120624429       20.3844860058       16.6277215665
H                45.2415538908       20.6573260198       18.3686179501
H                48.5771219014       20.7264939953       16.5594179676
H                48.9402272733       19.0768148123       17.0176738630
H                47.7536643576       19.3869448110       15.7465304900
H                45.2089285437       22.7370053039       17.1634338858
H                46.5543359844       22.6117602954       18.2767013780
H                46.8269716570       22.4606898508       16.5276626660
N                44.0036828263       18.4189544509       18.3008615048
C                42.8438348895       18.4736183453       19.1507889529
C                42.5019306297       17.1266195747       19.7554622552
O                41.9323181320       17.0693269103       20.8433848371
C                41.5359185939       18.8629282105       18.4578261836
C                41.5529337070       20.1653798359       17.6549203695
C                40.1613545563       20.7786724397       17.6506155486
C                42.5862263170       21.1387923231       18.1931412347
H                43.8570793496       18.4740000616       17.3001651451
H                43.0546883439       19.1613342807       19.9800210399
H                41.2329950421       18.0280512448       17.8204078300
H                40.7993086233       18.9454593728       19.2604036884
H                41.8316970590       19.9184060562       16.6346810560
H                40.1325983234       21.6734743198       17.0360660312
H                39.4336450747       20.0582982433       17.2856970430
H                39.8900899023       21.0664691710       18.6574667491
H                42.3117954797       22.1528171236       17.9333809437
H                42.6928191916       21.0391154980       19.2664932735
H                43.5399264966       20.9034639320       17.7584628667
N                42.7737457756       16.0904828099       18.9791566477
C                42.5526340635       14.7105245490       19.3498419243
C                43.6203901090       14.4162047202       20.3904057579
O                43.3499404032       13.9923536659       21.5077839613
C                42.6649860144       13.8145607110       18.1183951991
C                41.3668653900       13.6075006400       17.3017255908
C                40.9745357544       12.1319352186       17.3417352782
C                40.1807872778       14.4635715252       17.7357469190
H                43.0117237538       16.2563808276       18.0068145570
H                41.5795313827       14.5831095652       19.8354899217
H                43.4263169581       14.2462602427       17.4695979972
H                43.0139897459       12.8287216034       18.4237772302
H                41.5783738496       13.8812219446       16.2631713818
H                40.0957440848       11.9637685758       16.7257780863
H                41.7835893546       11.5161638088       16.9568179277
H                40.7484265793       11.8239259212       18.3611600934
H                39.4011976958       14.3764976342       16.9825323284
H                39.7701206055       14.1412171463       18.6904543090
H                40.4538962560       15.5140079579       17.7875530795
N                44.8680702567       14.7019284397       20.0351933193
C                45.9103108269       14.5477395861       21.0249391039
C                45.5308747850       15.3769491626       22.2640663818
O                45.5807467227       14.8593980756       23.3722141811
C                47.2796350694       14.8709892227       20.4491984075
S                47.7720738857       13.6719760337       19.1537726098
H                45.0698775690       15.1251979666       19.1353364737
H                45.9038035129       13.5071433648       21.3843528695
H                47.2969640404       15.8549868735       19.9885099226
H                48.0428192232       14.8087070527       21.2238816496
H                46.9220879897       14.1170434257       18.2331794669
N                45.1241530148       16.6293141184       22.0830899982
C                44.8323865464       17.4624852554       23.2340837970
C                43.6874834132       16.8570256480       24.0376887453
O                43.8183622096       16.6141576033       25.2305377994
C                44.4651763755       18.8997826587       22.8378229251
C                43.6928129541       19.5654285815       23.9656073979
C                45.7013535094       19.7413123171       22.5445469033
H                45.1281752088       17.1052430190       21.1842088335
H                45.7088306297       17.4650994874       23.8984795369
H                43.8277574473       18.8512759833       21.9516262685
H                43.4301885111       20.5686450531       23.6647919961
H                42.7799390833       19.0331537427       24.2112648629
H                44.3178231863       19.6251354810       24.8502764164
H                45.3994270326       20.7479774030       22.2654159193
H                46.3120040543       19.8035955306       23.4385315676
H                46.2845302735       19.3128636702       21.7393776989
N                42.5468039323       16.6761835431       23.3788681412
C                41.3349735208       16.2322554340       24.0330197522
C                41.5747770160       14.8787134550       24.6675536512
O                41.1752811167       14.6431211165       25.8086492769
C                40.1840182666       16.1566047963       23.0234516093
C                38.8315833491       15.8002477395       23.5920853291
C                37.9856350457       14.9680785688       22.8630648268
C                38.3661114750       16.3135947224       24.7973524537
C                36.7155250275       14.6642399238       23.3196627825
C                37.1030840979       15.9920192172       25.2679120345
C                36.2719308414       15.1694091420       24.5292799220
H                42.4517767849       16.9281687235       22.4000006902
H                41.0942739352       16.9253489637       24.8526159687
H                40.1185068570       17.1257008288       22.5208474046
H                40.4573927810       15.4251315237       22.2603120723
H                38.3171888211       14.5493896734       21.9228262471
H                38.9930892197       16.9513273184       25.4021981871
H                36.0725388608       14.0309757023       22.7258730995
H                36.7767625128       16.3771179805       26.2222066071
H                35.2902166337       14.9127737337       24.8957382679
H                42.8289216028       26.0512721704       20.8310909902
H                38.7774732776       26.5837903256       17.7703754179
H                40.8808788008       28.1872024515       16.1828048789
H                38.5120370670       25.7950133521       12.7750554535
H                44.0069971913       33.2057032665       15.1922617325
H                46.5122822863       35.2224149029       16.2094808612
H                50.9753099510       23.1744119297       21.6879433044
H                50.2860437773       26.4839792887       20.8346233383
H                53.1853837978       24.9426030735       17.6405282833
H                42.0609121433       14.1675101348       24.1597520411
