 454 
 
N                57.7419647633       64.0512251752       52.9885140427
C                57.9277707720       64.8032648159       51.7663397589
C                57.3162227901       64.1451599679       50.5393227428
O                57.5655799420       63.0278420932       50.1328019159
C                59.4107796488       65.1272030781       51.4263780061
C                60.2604959105       64.0039680150       50.8047158210
C                60.1066635413       65.8203572329       52.5969635024
C                60.2861622039       62.6541223368       51.5051264884
H                58.2689793559       64.4113079084       53.7686250610
H                57.4310281853       65.7746154068       51.9054508529
H                59.3238309270       65.8795392043       50.6338674309
H                59.8954734299       63.8234670562       49.7916692015
H                61.2763328521       64.3901088854       50.7351435369
H                61.0561231471       66.2186863583       52.2523228276
H                59.4930953399       66.6504478854       52.9372342970
H                60.3129643029       65.1631434563       53.4368538006
H                60.9283751756       61.9669353806       50.9568630885
H                60.6531391318       62.7089481652       52.5233975548
H                59.2882470694       62.2289870400       51.5074648041
N                56.6043660566       65.0312310477       49.8053431199
C                56.0657039947       64.5812870593       48.5473763661
C                57.1829367035       64.6781794810       47.5132393312
O                57.2461400379       63.8331846103       46.6269349353
C                54.7407008391       65.2768747799       48.1701940194
C                53.7988417978       65.3880989051       49.3843140619
C                54.0300803230       64.5039650449       47.0624252887
C                53.5211402795       64.0631879586       50.0875900933
H                56.2454134524       65.8914870846       50.1875611914
H                55.8798128053       63.4999006850       48.6375349700
H                54.9516574691       66.2909869275       47.8130988030
H                54.1947308544       66.0983461958       50.1115362134
H                52.8492680720       65.7932161871       49.0296784846
H                53.1148762462       65.0138920753       46.7752241474
H                54.6380504929       64.4023898522       46.1725934299
H                53.7721090467       63.5068866330       47.4060774018
H                52.8910199953       64.2302850989       50.9570297682
H                52.9962200529       63.3734255633       49.4325986772
H                54.4345102358       63.5883517335       50.4353343256
N                58.1124606454       65.6310044087       47.6243303141
C                59.2360215607       65.7829098416       46.6914797035
C                59.1875949917       64.6750881460       45.6195594116
O                58.6500593446       64.8931808118       44.5420168611
C                60.6055084806       65.8637131654       47.3969457750
C                61.1003329658       67.2928242054       47.7194588020
C                62.5149885846       67.4724309011       47.1559850132
N                63.1546845217       68.7063739512       47.5791335435
C                64.1990691697       69.2549166275       46.9589594549
N                64.5918326359       68.8627346947       45.7451961620
N                64.8064417148       70.3136659181       47.4834333253
H                58.0221622403       66.3427177615       48.3362434466
H                59.0751951586       66.7136583277       46.1284181613
H                60.5817353451       65.2704057307       48.3093382957
H                61.3350718382       65.4043274326       46.7283208420
H                60.4287073276       68.0317066817       47.2868187250
H                61.1317588033       67.4406812928       48.7975733469
H                63.1229952720       66.6316107458       47.4928947633
H                62.4734697513       67.4639114656       46.0692300876
H                62.9924075859       68.9716590384       48.5412101979
H                64.4343597448       67.9223307968       45.4177546489
H                65.4237593872       69.3084920245       45.3752547136
H                64.5279180862       70.7120072265       48.3653929187
H                65.6630503387       70.6215517602       47.0480216680
N                59.8517758221       63.5301324886       45.8588892547
C                59.9253818460       62.5361099767       44.8048061138
C                58.5452562475       62.2417816581       44.2358832689
O                58.3886293715       62.3289988391       43.0216538339
C                60.6323810461       61.2492334215       45.2074320494
C                62.0966002776       61.4755181386       45.4850296441
C                62.8640018199       60.4457772752       46.0189173757
C                62.7243262887       62.6777899036       45.2122059304
C                64.2125998791       60.6110131561       46.2525538351
C                64.0693812510       62.8579466303       45.4527126645
C                64.8449462609       61.8144434534       45.9409178799
O                66.1880523095       61.8739758235       46.1712481601
H                60.2879447462       63.3384661190       46.7460786870
H                60.4894538044       62.9447860738       43.9531330796
H                60.1523138595       60.7751041850       46.0655132167
H                60.5417813552       60.5660031862       44.3558112494
H                62.4037812171       59.4909303919       46.2216679037
H                62.2077763898       63.5075975788       44.7609844312
H                64.8094639170       59.8158329194       46.6717549687
H                64.4654824727       63.8320171988       45.2337157990
H                66.6231400207       62.6590528012       45.7790193207
N                57.5859046617       61.8411541323       45.0595300377
C                56.1982292689       61.6576199878       44.6497343148
C                55.7236830720       62.8316969584       43.7863960081
O                55.1972396538       62.6343959452       42.7014366352
C                55.3392181347       61.4695121853       45.9086723145
C                53.8731147982       61.0350294361       45.7294814772
C                53.1738545843       61.6796406474       44.5432154898
C                53.7686143544       59.5176699241       45.6280932103
H                57.7705509724       61.8968931617       46.0501444437
H                56.1289835399       60.7884283644       43.9891098836
H                55.8009546569       60.6984912411       46.5275000556
H                55.3765870609       62.4128268037       46.4431886425
H                53.3383480298       61.3344955656       46.6383893641
H                52.1158546676       61.4350213274       44.5557794714
H                53.2662028679       62.7626138774       44.5635315099
H                53.5986737791       61.3036478909       43.6165864356
H                52.7246738478       59.2273534849       45.5422813245
H                54.2920377880       59.1457140043       44.7512963009
H                54.1942291242       59.0489279056       46.5118371009
N                55.8767821571       64.0564125270       44.2978422963
C                55.4266538632       65.2660765757       43.6391570401
C                56.0952468458       65.4517095906       42.2766340965
O                55.5844665229       66.1311139424       41.3924501899
C                55.6289843263       66.4568328789       44.5862855476
C                55.5970872387       67.8166154534       43.9103237671
S                55.6291771002       69.1410612089       45.1554669428
C                57.2808193949       68.8776623209       45.8944949265
H                56.4788836217       64.1633931576       45.1072479662
H                54.3590664775       65.1553435038       43.4104952972
H                54.8372103356       66.4346705742       45.3367391661
H                56.5962028936       66.3432081234       45.0782292715
H                56.4389812409       67.9574554930       43.2321439818
H                54.6692231158       67.9610592975       43.3585314632
H                57.4836240416       69.7678111667       46.4785615735
H                57.2478340892       68.0059421088       46.5392038209
H                58.0055015042       68.7634567810       45.0937184476
N                57.2315470793       64.7792908859       42.1287995112
C                57.9769755581       64.7588221930       40.9010782719
C                57.5170714838       63.5787664518       40.0426883159
O                57.0897108815       63.8156409184       38.9089597148
C                59.4561583759       64.8275495253       41.2614276436
C                59.7569189188       66.0918488550       42.0350871120
C                60.7350103595       66.0623183954       43.0178463293
C                59.1361770345       67.3105781025       41.7611588883
C                61.1003966143       67.2206195168       43.6794615874
C                59.4837874684       68.4649099783       42.4446153025
C                60.4852257842       68.4266461705       43.3973597715
H                57.6900092384       64.3517918265       42.9231768411
H                57.7001392518       65.6444240130       40.3168580407
H                59.7270972257       63.9491316857       41.8524229137
H                60.0654163183       64.8055655605       40.3552176171
H                61.2610729325       65.1403213441       43.2302406697
H                58.3913540442       67.3884178998       40.9832676049
H                61.8951936203       67.1670979001       44.4029695953
H                58.9849313848       69.3996736018       42.2262070360
H                60.7948464205       69.3332179700       43.8907823947
N                57.5290834374       62.3677481481       40.5764145148
C                57.0897367181       61.2046876153       39.8385970282
C                55.6621477321       61.4230454605       39.3691030069
O                55.2887422750       60.9432190899       38.3030327292
C                57.2257204896       59.8456528671       40.5803169096
C                56.0283605377       59.5881112757       41.5125893501
C                58.5914576410       59.7205312422       41.2505095628
C                56.1698762857       58.3467476258       42.3894071225
H                57.8737497703       62.2423011873       41.5210486771
H                57.6924507990       61.1350244338       38.9230753218
H                57.1921091771       59.0788929183       39.7971848464
H                55.8261691279       60.4590276022       42.1323464922
H                55.1561703292       59.4457691910       40.8711111948
H                58.7090883200       58.7284854811       41.6762447534
H                59.3800523621       59.8623125973       40.5147427976
H                58.7096189682       60.4549457006       42.0370031140
H                55.2095551610       58.0865064155       42.8298375973
H                56.4831543081       57.5108044589       41.7707706284
H                56.8709573209       58.4947857630       43.2075939638
N                54.8549974358       62.1502311624       40.1384562133
C                53.4739416036       62.3280579024       39.7436902268
C                53.4200572554       63.1621158971       38.4656372938
O                52.5981062731       62.9123760303       37.5927803293
C                52.5994356475       62.9499623634       40.8385491958
C                52.8769434331       64.4318635961       41.0270923964
S                52.1359017269       65.1049204350       42.5472267803
C                50.4495979619       65.3869761018       41.9567405824
H                55.1380833009       62.4481940862       41.0681131688
H                53.0483039521       61.3472915872       39.4883057770
H                51.5556675583       62.7947764315       40.5593246747
H                52.7881261982       62.4326085772       41.7797034898
H                53.9456833806       64.5987572295       41.1220332415
H                52.4954695386       65.0327597075       40.2022873882
H                49.9163650707       65.8984523697       42.7504502817
H                50.4980833743       66.0120547066       41.0691578767
H                49.9876901586       64.4288202083       41.7422410839
N                54.2931673696       64.1698543180       38.3902225129
C                54.4251870538       65.0109485771       37.2165659877
C                55.0236050968       64.2137998783       36.0623486247
O                54.6179382376       64.3558144082       34.9139322144
C                55.2764192801       66.2653064754       37.5181698638
C                54.4174702976       67.4092902643       38.0734068562
C                56.0901676876       66.7140669487       36.3023044060
C                53.4923173010       68.0531708011       37.0477008164
H                54.9970203039       64.2650451942       39.1092217670
H                53.4195699582       65.3060408218       36.8947317760
H                55.9839288215       65.9780938641       38.3030054768
H                53.8379699273       67.0252971987       38.9150156903
H                55.0897679345       68.1775385928       38.4596691695
H                56.5552203735       67.6764020143       36.5006373035
H                56.8765711380       65.9926934310       36.0945654313
H                55.4720015310       66.8084529085       35.4127758203
H                52.9020059556       68.8360512014       37.5162291038
H                54.0667241160       68.5008278797       36.2423421212
H                52.8102993257       67.3253864755       36.6157616474
N                55.9990895335       63.3654697200       36.3829619061
C                56.6976076685       62.6441723150       35.3393465224
C                55.7579334759       61.5961243491       34.7597468503
O                55.6524447196       61.4263028745       33.5502293314
C                57.9603400447       61.9515494580       35.8396342229
C                58.9173318391       62.8797145070       36.5924241585
C                59.9458710372       62.0187934052       37.3163693792
C                59.5657628001       63.8806974334       35.6416751603
H                56.3693759290       63.3575151209       37.3270746553
H                56.9337659953       63.3460696154       34.5284621415
H                57.6571448625       61.1306045674       36.4928797874
H                58.4788332313       61.5291177198       34.9772351508
H                58.3509877252       63.4364894504       37.3378207425
H                60.4913678507       62.6063570009       38.0446690282
H                59.4510734416       61.2049274849       37.8400253033
H                60.6373702208       61.5883634157       36.5977577148
H                59.9790739154       64.7367258807       36.1684407381
H                60.3696735509       63.4207875264       35.0721406289
H                58.8268176651       64.2626778803       34.9441480625
N                62.6920754802       66.8709892752       31.4967688437
C                61.8322722540       66.6175478493       32.6355190414
C                62.4779502525       65.5609007605       33.5278744948
O                62.2279322900       65.5295478734       34.7282904517
C                60.3981111375       66.1495472519       32.2837149882
C                60.4537965318       64.7277957005       31.7064666946
C                59.7149865174       67.1782561669       31.3885939618
C                59.2163292479       64.2892937084       30.9334821809
H                62.3902898313       66.5732957607       30.5727751287
H                61.7654573385       67.5413472258       33.2244576517
H                59.8591626297       66.1130998445       33.2367354613
H                61.3173107223       64.6734190519       31.0480397199
H                60.6223592144       64.0296165682       32.5286319912
H                58.6994327497       66.8889822852       31.1323663063
H                59.6717123266       68.1262261388       31.9170216531
H                60.2761429840       67.3054647879       30.4709304689
H                59.2692572103       63.2237597349       30.7217934156
H                58.3096091719       64.4676274799       31.5023626897
H                59.1500432009       64.8259057870       29.9920273699
N                63.2667586156       64.6945067391       32.8979877128
C                64.0788281959       63.6893749186       33.5297297832
C                65.3978222387       64.2706112245       34.0264033746
O                65.8607743480       63.9028794863       35.0925845374
H                63.3721706706       64.7449228684       31.8915084427
H                63.5866750807       63.2814042307       34.4198137708
H                64.2602802074       62.8905807473       32.8076606440
N                65.9856276762       65.2406859961       33.3081941962
C                67.1527445509       65.8898560519       33.8826078180
C                66.6655761267       66.7201976683       35.0654528685
O                67.2996633303       66.7789658961       36.1108041850
C                67.9959805038       66.7267732513       32.8940034437
O                69.3546313094       66.4633147708       33.2037474124
C                67.6955069078       68.2246414054       32.9516901877
H                65.8116297847       65.3780159793       32.3193346167
H                67.8301594058       65.1290202134       34.2968457962
H                67.7906292674       66.3562452709       31.8858436645
H                69.9119145102       66.9624034856       32.5919155182
H                68.2445238600       68.7459564767       32.1706221217
H                66.6352451751       68.4057709130       32.8086438501
H                67.9939359182       68.6301010754       33.9166871918
N                65.5041630401       67.3513701944       34.8776157984
C                64.8790136750       68.0624937290       35.9683021126
C                64.6067311341       67.0188582609       37.0402495792
O                65.1061767564       67.1977847855       38.1450993339
C                63.6464624470       68.8614485448       35.5544213060
C                63.9279290950       69.9651790478       34.5614218753
C                62.8469098686       70.5798283079       33.9354304012
C                65.2094388488       70.3907250379       34.2372493394
C                63.0416894916       71.5495445797       32.9699461066
C                65.4076717909       71.3602530944       33.2678845056
C                64.3268503378       71.9315248171       32.6193397787
H                65.0323733648       67.3964143988       33.9786443012
H                65.6151174399       68.7377761133       36.4289796596
H                62.9006865071       68.1864606872       35.1285084024
H                63.2060408142       69.3082939163       36.4519516099
H                61.8408221336       70.2952603483       34.2085568387
H                66.0712913381       69.9647850859       34.7246770249
H                62.1912668397       72.0023034775       32.4824459295
H                66.4115709115       71.6624888170       33.0086435252
H                64.4855130709       72.6680230882       31.8474641332
N                63.9020630612       65.9274584645       36.7570401346
C                63.5525052244       65.0360241081       37.8460215288
C                64.7831084689       64.4874825658       38.5543833438
O                64.8547167787       64.4858499234       39.7801539176
C                62.6612329423       63.8919597185       37.3893268166
O                63.3274497644       62.9855219271       36.5424051482
H                63.3525291877       65.8043625909       35.9005723213
H                62.9826434146       65.5865326886       38.6029199053
H                62.3256875054       63.3786843564       38.2970764375
H                61.8106536802       64.3256731784       36.8547772315
H                62.8488643628       62.1508147840       36.5909085707
N                65.7425933161       64.0509890420       37.7533765273
C                66.9586573337       63.5059728625       38.3112659793
C                67.6079125391       64.5893711559       39.1595098712
O                68.1324444504       64.3220139280       40.2449605873
C                67.8624786201       62.9940051376       37.1828821248
C                67.3423107546       61.6335249246       36.7040862552
C                69.3147547484       62.8934477046       37.6307542113
C                67.7527814013       61.2996300868       35.2763660904
H                65.5477036831       63.9137262821       36.7643394441
H                66.7055869435       62.6867965323       39.0045962824
H                67.7853170015       63.7216644944       36.3710949475
H                67.7071882381       60.8644977310       37.3883227352
H                66.2531030246       61.6353667974       36.7629781662
H                69.9133903844       62.4519805755       36.8401864416
H                69.7148660522       63.8751144356       37.8706809563
H                69.3922967031       62.2653396250       38.5158562132
H                67.3880559488       60.3107060392       35.0125951312
H                67.3155059386       62.0271222609       34.6004952317
H                68.8324417794       61.3128675600       35.1590607146
N                67.5685406934       65.8286022453       38.6805647745
C                68.0261738001       66.9254063590       39.5059913026
C                67.1583852175       67.0069521847       40.7604301149
O                67.6798418652       67.1304778188       41.8639346977
C                67.9952271027       68.2522072035       38.7489757816
C                68.5605389532       69.4428582661       39.4850916889
C                68.2798479963       70.7127239511       38.9829184969
C                69.3581260810       69.3502533104       40.6181684716
C                68.7496399487       71.8518012231       39.6087372054
C                69.8235832497       70.4924593078       41.2543442403
C                69.5129153382       71.7461131018       40.7596090401
H                67.2428257158       66.0391849548       37.7427690014
H                69.0428351842       66.6776934164       39.8409885089
H                68.5313632871       68.1200125737       37.8046763429
H                66.9504688425       68.4526025008       38.5033274250
H                67.6884687401       70.8077450439       38.0844620577
H                69.6154194971       68.3879240813       41.0302228138
H                68.5239724124       72.8218872854       39.1923301327
H                70.4455667001       70.3969303650       42.1335124331
H                69.8729776454       72.6335371199       41.2564758926
N                65.8442110397       66.9969349228       40.6183015156
C                64.9711851529       67.0645180382       41.7655494974
C                65.3386164503       65.9753392974       42.7791065863
O                65.1638859625       66.1596271775       43.9831385196
C                63.4953884527       66.8924813693       41.3784560661
C                63.0408370806       67.7998393528       40.2289067262
C                61.6535890431       67.4276287058       39.7019135121
C                63.0631332558       69.2743663517       40.5995237236
H                65.4299318325       66.7936648969       39.7190630486
H                65.1409122351       68.0341875918       42.2569786278
H                63.3535125250       65.8469267970       41.0886346193
H                62.8831558082       67.0746230290       42.2592577304
H                63.7522818915       67.6483873564       39.4256670609
H                61.5643254349       67.6738142696       38.6454359142
H                61.4599388418       66.3660546551       39.8306147494
H                60.8816179067       67.9688056420       40.2372845101
H                62.7761671515       69.8575777695       39.7286274600
H                62.3566711827       69.4872325620       41.3959142541
H                64.0626837650       69.5519863880       40.9134665814
N                65.8788340531       64.8776805742       42.2519227280
C                66.2684471806       63.7306006897       43.0360454159
C                67.5945440701       64.0162342435       43.7282720322
O                67.7291602411       63.8293578506       44.9461283324
C                66.3007924469       62.4664648010       42.1903556382
C                64.8689133420       62.1170979233       41.6249627260
O                63.8910232876       62.5861080166       42.2299353708
O                64.8528373010       61.3622774071       40.6348694269
H                65.7475799531       64.6870096406       41.2671099568
H                65.5153943307       63.5734496048       43.8105368059
H                66.9965306314       62.5417972462       41.3541345084
H                66.5972299256       61.6116344869       42.8052315711
N                68.5460568713       64.5418368256       42.9728773203
C                69.8752506201       64.9067130420       43.4466751758
C                69.7480579142       66.0105771172       44.5195011159
O                70.2477465706       65.9105368575       45.6438386917
C                70.6869418077       65.3579861235       42.2350799212
H                68.3941339842       64.5680359678       41.9652765721
H                70.3399291851       64.0329910819       43.9240013733
H                71.7109099270       65.5934539335       42.5059372381
H                70.6936259316       64.5652858036       41.4888138279
H                70.2245388835       66.2334197905       41.7862848073
N                69.0374854869       67.0504910777       44.0985125216
C                68.5888637724       68.2040162951       44.8370362997
C                67.6391758223       67.8749494250       45.9892779916
O                67.2773883194       68.7548957333       46.7432459999
C                67.7659189799       69.1055829860       43.8687282105
O                67.1031229782       70.1590193996       44.5110713504
H                68.6006305769       66.9388049403       43.1852567388
H                69.4486655976       68.7350584136       45.2705278965
H                68.3823483355       69.4560771830       43.0387434363
H                67.0014679899       68.4413722698       43.4597428061
H                67.5030294808       71.0045903472       44.2757688288
N                67.2019478351       66.6128838619       46.1116731564
C                66.5490799462       66.1658975803       47.3139018365
C                67.4430910394       65.2755714267       48.1590868968
O                67.1233230889       64.9891798226       49.2983560034
C                65.3407871502       65.2769843479       47.0222385222
C                64.6221020354       64.9047106347       48.2727172053
N                64.1140116726       65.8461553694       49.1200397263
C                64.3609562576       63.6576591240       48.7737505196
C                63.5550967374       65.1870711655       50.0973710932
N                63.6729080567       63.8517197419       49.9352929472
H                67.3510496711       65.9061021918       45.4058158517
H                66.2511812182       67.0304791172       47.9165055957
H                64.6964550799       65.7624362794       46.2866876125
H                65.7398047910       64.3673005345       46.5873992494
H                64.6085939886       62.6804607150       48.4120612418
H                63.0588468589       65.6552605407       50.9207072262
H                63.3436306359       63.1283625045       50.5533497918
N                68.5560325576       64.7857547169       47.5982731644
C                69.4048466943       64.0068479889       48.4572239813
C                70.3552992443       64.9346852045       49.2379614153
O                70.8497742782       64.5670434432       50.2895827922
C                70.1422093382       62.9036191886       47.7082764722
C                71.0369639626       62.0366755839       48.5840276165
O                72.1320907767       61.6708373498       48.1999176150
N                70.4855490055       61.6104666025       49.7381518585
H                68.7766782815       64.8668731685       46.6082698124
H                68.7357815384       63.5928339683       49.2309595944
H                69.4193899644       62.2483986421       47.2130939264
H                70.7830360625       63.3465566579       46.9463267813
H                71.1108792126       61.1999316306       50.4141664330
H                69.6986447019       62.1116202956       50.1134769329
N                70.4953192866       66.1723578317       48.7365440302
C                71.3247910752       67.1533593258       49.4196836722
C                70.5669642996       67.8279104668       50.5931040738
O                71.0679293818       67.8226532446       51.7224453551
C                71.9685136909       68.1323002718       48.4160045448
C                72.7756425734       69.2144016504       49.1290904147
C                72.8747151411       67.3642446038       47.4529570941
H                70.2547580252       66.3149804395       47.7572495541
H                72.1286193076       66.6015004407       49.9321410501
H                71.1769679248       68.6120799327       47.8333588406
H                73.2403887442       69.8684910742       48.3955975309
H                72.1434045839       69.8026576191       49.7885173206
H                73.5646249231       68.7653572494       49.7299729839
H                73.3718863240       68.0539262993       46.7755480897
H                73.6413976745       66.8245751641       48.0053310510
H                72.3034259726       66.6451518640       46.8732553836
N                69.3944999922       68.4399524893       50.3826710065
C                68.7742965788       69.2287814704       51.4487637440
C                68.3383897540       68.5038148641       52.7284481598
O                68.5587546863       69.0521916314       53.8024604604
C                67.5821820353       69.9601134957       50.8129804949
C                67.4461226717       69.3942491046       49.3972393608
C                68.6622531875       68.5029949214       49.1284645390
H                69.5110123877       69.9464383865       51.8347633136
H                66.6716439908       69.8292895997       51.3981510501
H                67.7946975230       71.0267120187       50.7852527745
H                66.5290122299       68.8199104459       49.2906098561
H                67.4761635789       70.2128184072       48.6904318681
H                68.3886911400       67.4969525120       48.8062632019
H                69.2671895964       68.9351106014       48.3304528193
N                67.6273738250       67.3740143513       52.6284809256
C                67.1941514477       66.6744084616       53.8217081706
C                68.3195285942       65.9494390164       54.5488355991
O                68.1366746492       65.4693917256       55.6581932291
C                66.2142352155       65.5944578546       53.3363506660
C                65.9352119889       65.9564318924       51.8837151664
C                67.2072616937       66.6659069513       51.4370579441
H                66.7457767755       67.3646134634       54.5421975017
H                66.7252691696       64.6349955432       53.4285521949
H                65.3213894203       65.5834955014       53.9533943288
H                65.7505715765       65.0877497232       51.2652197806
H                65.0794839143       66.6268837395       51.8200529480
H                67.9626807115       65.9356203331       51.1218412747
H                67.0128541516       67.3487330487       50.6199199218
H                56.8728775431       64.0670735953       53.2218297756
H                55.2077886017       61.0258023293       35.3697250557
H                62.8275058488       67.7568692408       31.4138514032
H                69.2182332848       65.8626723412       54.1189502386
