 405 
 
N                16.5246051556       12.1535034476       22.0761102116
C                17.6636995789       12.9236573695       21.6247748621
C                18.8759300096       12.0388737960       21.3555154094
O                19.6919710956       12.3229803368       20.4851073795
C                18.1139969431       14.0138317305       22.6094998104
C                16.9320785081       14.7173599530       23.2861024871
C                19.0352965339       15.0069014248       21.9035358811
C                15.9624820646       15.4947647304       22.4062661128
H                16.3190688778       12.1012940932       23.0616453856
H                17.3740041759       13.3798961302       20.6713028573
H                18.6722109710       13.4980282532       23.3990795295
H                16.3594269241       13.9650700724       23.8253884161
H                17.3538222204       15.4126804405       24.0118806435
H                19.3485045688       15.7724188328       22.6061419461
H                19.9193637731       14.5212349842       21.4977783284
H                18.5143031021       15.4790826478       21.0768368682
H                15.1231765495       15.8000017123       23.0271273928
H                16.4334929477       16.3810633971       21.9919606301
H                15.5611281494       14.8856485363       21.6016553985
N                18.9248335286       11.0924955647       17.9521241579
C                19.3115759712       12.1068063317       16.9962347891
C                20.7448543544       11.9353517671       16.4886419262
O                21.0554873692       12.2585752539       15.3504676321
C                19.1919316274       13.4750549720       17.6449737831
H                18.8477394952       11.3740800630       18.9196923597
H                18.6516071011       12.0094351524       16.1246101115
H                19.4805389737       14.2593884701       16.9519011269
H                18.1653436366       13.6108972481       17.9672686540
H                19.8373643704       13.5090241095       18.5172765831
N                29.6284871799       18.6490304797       14.2719686274
C                28.6219393893       19.1070660194       15.2089941279
C                29.2931853160       19.8294208317       16.3827621608
O                28.8668850940       20.8887071288       16.8258510761
C                27.7590863480       17.9270644500       15.6620682692
C                26.5659026178       18.3968015292       16.4383445273
C                25.4812419806       18.9363444932       15.7566474176
C                26.5078365292       18.3115149539       17.8217556298
C                24.3594180805       19.3629281629       16.4390100684
C                25.3858549696       18.7435281216       18.5056049546
C                24.3071644149       19.2678566174       17.8189754155
H                29.5628298139       17.7135051427       13.8932860068
H                27.9767534833       19.8572551510       14.7291755203
H                27.4112953990       17.4038175630       14.7651442928
H                28.3736067946       17.2353723019       16.2376820011
H                25.5221423517       18.9968302496       14.6785635227
H                27.3447208745       17.8974033643       18.3581236440
H                23.5224550685       19.7666563627       15.8902595925
H                25.3380471915       18.6672859612       19.5804540863
H                23.4308180960       19.5952677136       18.3561729624
N                30.4861406966       23.4249078840       15.7576650319
C                29.4434745606       24.4054888916       15.5800069730
C                28.6956900846       24.7426856687       16.8721785982
O                28.2268350893       25.8765273534       17.0322184641
C                28.4997941428       23.9844007445       14.4457193471
C                27.7491956912       25.1741442107       13.8459491010
C                28.7063955896       26.1551202596       13.1701651045
C                27.9843137774       27.4036540479       12.6812750518
N                28.9623431533       28.5193866597       12.5599850723
H                30.3485859796       22.4871710916       15.4055994974
H                29.9529990761       25.3403566777       15.3145984582
H                29.0909041046       23.5003172022       13.6655875515
H                27.8003807715       23.2419798833       14.8315638766
H                27.0215654371       24.8161409137       13.1162216422
H                27.1929794626       25.6843776037       14.6329435414
H                29.4523811893       26.4699384685       13.8976727924
H                29.2023764604       25.6486136807       12.3442565718
H                27.5045875405       27.2215115601       11.7209918914
H                27.2160037229       27.6980619199       13.3956585910
H                28.4939221418       29.3763926414       12.2390345504
H                29.3701367315       28.6904255811       13.4974564262
H                29.7087301225       28.2646339770       11.8969532987
N                28.6202879337       23.7992416732       17.8033511114
C                27.9105743955       23.9873963137       19.0689808647
C                28.2817860237       25.3477553598       19.6765735510
O                27.4451042646       26.1941276298       19.9666829390
C                28.2507762267       22.8083973298       19.9947876220
C                27.4538166262       22.6640128508       21.3090346054
C                27.8360642079       23.7061083674       22.3613623270
C                25.9444202337       22.6816901122       21.0687119717
H                29.0107834848       22.8811284652       17.6162824357
H                26.8326688714       24.0236666559       18.8664130974
H                28.1007831941       21.8981174873       19.4082481707
H                29.3144036735       22.8636571056       20.2277900629
H                27.7219743192       21.6781495560       21.7055658021
H                27.3004034989       23.5209609349       23.2901323237
H                28.9023412994       23.6768453440       22.5688347618
H                27.5675865510       24.7038272297       22.0277669635
H                25.3973812891       22.4184985644       21.9720565017
H                25.6248464039       23.6779925856       20.7741038694
H                25.6653732823       21.9760285012       20.2886789232
N                26.6626604187       28.6813281139       18.3626297859
C                25.2420485455       28.9667505851       18.2789514285
C                24.8562679701       30.0766056537       19.2612213870
O                25.3354147967       30.1393623337       20.3890241196
C                24.4371414103       27.6754999644       18.5136045042
C                24.4172656839       27.2563248492       19.9789335905
C                23.0058822315       27.8303429598       18.0059895100
H                26.9568060791       27.9333365160       18.9790234662
H                25.0639298736       29.3219398392       17.2587596794
H                24.9463183864       26.9012965145       17.9286541674
H                23.8877080586       26.3125100146       20.0784616243
H                25.4191807886       27.1361681686       20.3778264796
H                23.9004296906       28.0046001783       20.5717352066
H                22.4811293949       26.8806338331       18.0780399050
H                22.4757993680       28.5514881431       18.6237027978
H                22.9821102892       28.1547224884       16.9684034247
N                16.2903712801       22.4390475969       25.7873982632
C                17.2378295918       21.5916436179       25.1019080755
C                16.6782960562       21.0490673179       23.7944254863
O                17.3469510340       21.0725271480       22.7597559421
H                16.1349638232       22.2049324448       26.7595349590
H                18.1515906738       22.1467102816       24.8671103569
H                17.4830984803       20.7704470438       25.7747628760
N                15.4533176821       20.5361897796       23.8411696114
C                14.7891460447       20.0586945071       22.6407332981
C                14.8659460393       21.1100407456       21.5202990809
O                15.1868687321       20.8187633871       20.3770392623
C                13.3323680167       19.7312724660       22.9394836616
H                14.9568572074       20.4777138557       24.7245560511
H                15.3058397043       19.1642457531       22.2667927237
H                12.8253943229       19.4506710931       22.0207762075
H                13.2692603052       18.9058867384       23.6440473919
H                12.8312776083       20.5962226292       23.3668407220
N                14.5089141517       22.3425458884       21.8906959817
C                14.5270155247       23.4570246862       20.9621447958
C                15.9515518863       23.6577610308       20.4124646641
O                16.2096677697       23.6443903827       19.2199199456
C                14.0406502329       24.7329579392       21.6484401233
C                12.5839595203       24.6561463091       22.0986756941
C                12.2136438850       25.8903037712       22.9650766430
O                12.8948664068       26.0983331294       23.9960369413
O                11.2754839738       26.6073021475       22.5765397997
H                14.3002166574       22.5369589050       22.8599085333
H                13.8829573327       23.2189428100       20.1057334137
H                14.6715278509       24.9250738721       22.5172627511
H                14.1588245365       25.5616872621       20.9470044920
H                11.9089604824       24.6355802432       21.2416623832
H                12.4084869919       23.7642710393       22.7048317258
N                16.8661273330       23.8537484383       21.3656826389
C                18.2646178286       24.1076146562       21.0749470546
C                18.7732434722       23.1242990300       20.0185506378
O                19.4518506042       23.4764520943       19.0624210461
C                19.0737969031       24.0074603485       22.3731057533
C                20.4968476454       24.5771289655       22.2834890356
C                20.4830986199       26.0906600473       22.0719159104
C                21.2522023840       24.2497620983       23.5727193987
H                16.5785960370       23.8374577300       22.3374550956
H                18.3572858737       25.1094687701       20.6400324347
H                18.5256765511       24.5480816045       23.1485848264
H                19.1097652162       22.9558437061       22.6662127891
H                21.0073343589       24.1040354766       21.4385486293
H                21.4973039659       26.4786146617       22.0483061127
H                20.0077427553       26.3628727468       21.1339010826
H                19.9470808867       26.5775042559       22.8810669960
H                22.2580879074       24.6558838346       23.5338970627
H                20.7401294876       24.6825432105       24.4284367671
H                21.3235375865       23.1771268193       23.7329131106
N                18.4553203851       21.8541575362       20.2734632991
C                18.8719044804       20.7574620077       19.4224434823
C                18.5293269297       21.0730149543       17.9676338287
O                19.3597386759       21.0726625627       17.0680284101
C                18.1854141996       19.4436549253       19.8650798980
O                18.5470484172       19.0983639765       21.1802160696
C                18.5943686738       18.3000888808       18.9448202509
H                17.9399151847       21.6418930898       21.1195972848
H                19.9585324759       20.6258335703       19.4975238940
H                17.0966221601       19.5910328015       19.8044616869
H                18.1645328772       19.7422614017       21.7981964688
H                18.1724422928       17.3752781333       19.3214615241
H                18.2282504786       18.4811262855       17.9411964947
H                19.6747813476       18.1953398224       18.9155608172
N                17.2321247514       21.3080209558       17.7592264523
C                16.7045547303       21.5222573683       16.4257719097
C                17.5691591650       22.5391009174       15.6834654336
O                17.9748837327       22.3322849778       14.5439243668
C                15.2511705706       21.9690566185       16.5145039982
H                16.5842689147       21.3389730999       18.5349531106
H                16.7735414956       20.5830321897       15.8609895200
H                14.8124475806       22.0101346942       15.5227831449
H                14.7044177518       21.2397668215       17.1071602972
H                15.1940680469       22.9336929649       17.0122670141
N                17.8010474202       23.6705755107       16.3401506707
C                18.5664544511       24.7453835338       15.7421780168
C                19.8617479763       24.2422187601       15.0860536260
O                20.1040542021       24.4224789818       13.8989808629
C                18.9219777934       25.7813654471       16.8064231129
C                17.6811022394       26.5150114978       17.2961544851
O                16.5864430785       25.9828866497       17.3959840567
N                17.8862529840       27.8056856071       17.5849333303
H                17.3861666702       23.8300774595       17.2527059025
H                17.9762647561       25.2107323523       14.9413626503
H                19.3730319710       25.2576498849       17.6535055505
H                19.6481112222       26.4861054443       16.4029255931
H                17.1209655672       28.3588855189       17.9415322173
H                18.7742375861       28.2489021871       17.4329516496
N                20.7338056686       23.6870113792       15.9310495105
C                22.0566908275       23.3259437628       15.4595783122
C                21.9406557982       22.3460817413       14.2926931195
O                22.6903570436       22.3569125912       13.3177119280
C                22.9142876144       22.6921278214       16.5678657834
C                24.3813397541       22.6648192387       16.1351715667
C                22.7781457192       23.4474325770       17.8890612436
H                20.4543288661       23.4453493864       16.8725278315
H                22.5467911258       24.2337348419       15.0823458953
H                22.5529625612       21.6690184880       16.7052287093
H                24.9609679038       22.0711957593       16.8363976432
H                24.5012288437       22.2337676993       15.1443489005
H                24.7899571754       23.6725432213       16.1086708341
H                23.5082867291       23.0638300161       18.5963303127
H                22.9667027883       24.5060971736       17.7326372971
H                21.7941073656       23.3296536625       18.3371342105
N                20.9844007398       21.4262417073       14.4429994391
C                20.7964910535       20.3944906707       13.4492426352
C                20.3528051778       20.9693686722       12.1020436684
O                20.9567312956       20.6689711875       11.0732594129
C                19.7632452213       19.3684072871       13.9029408129
C                20.1342974264       18.5529119361       15.1498568432
C                18.9760335776       17.6031213715       15.4547415591
C                21.4109892478       17.7352837752       14.9667174191
H                20.3776477627       21.4261110061       15.2547098993
H                21.7664145882       19.9153856112       13.2612151947
H                18.8391855627       19.9150970733       14.0944381639
H                19.5986064961       18.6796138377       13.0739958175
H                20.2633188148       19.2355604412       15.9939687382
H                19.1931958438       17.0188108635       16.3436218632
H                18.0468771906       18.1450279100       15.6139704055
H                18.8316677223       16.9148462100       14.6257663492
H                21.6637806715       17.2266849722       15.8938833206
H                21.2731036811       16.9819055603       14.1949239812
H                22.2595932980       18.3551563647       14.6951154649
N                19.2679976287       21.7368583282       12.0806497048
C                18.7688719922       22.2141912842       10.8079942751
C                19.6585536363       23.2746589305       10.1445282663
O                19.4522159851       23.6100369626        8.9884045167
C                17.3383609810       22.7400230392       10.8932403112
C                17.2282926806       23.9844052466       11.7763245188
C                15.9321688571       24.7602622328       11.5015879770
N                15.7518169259       25.8432113712       12.4512174568
C                15.3089976488       25.6857988701       13.6945643147
N                14.9196033937       24.4960091088       14.1439675083
N                15.1957996742       26.7531060315       14.4842618440
H                18.8065030598       22.0081168412       12.9431608968
H                18.7995208947       21.3654033448       10.1109647517
H                17.0392259494       22.9804609323        9.8722770309
H                16.7010014100       21.9380345644       11.2630296752
H                17.2796414062       23.6895876378       12.8245370058
H                18.0807641038       24.6411349463       11.5901239565
H                15.9659114825       25.1987954635       10.5040851097
H                15.0610457991       24.1036771911       11.5408050400
H                16.1606376654       26.7310912858       12.1945755361
H                15.0378531372       23.6589368838       13.5968393070
H                14.5552540132       24.4067432163       15.0794140190
H                15.4351207323       27.6682000485       14.1442592396
H                14.9196171642       26.6638319132       15.4508307852
N                20.6477724101       23.7573818129       10.9019323314
C                21.5650539221       24.7560374570       10.4048309257
C                22.8126251534       24.1278933477        9.7857954299
O                23.3552304654       24.6094178659        8.8046117593
C                21.9637248067       25.7115682364       11.5172814637
C                22.5439648497       27.0435581556       10.9275939730
O                21.8320372388       27.6417734732       10.1016694794
O                23.6544580516       27.3963069857       11.3636175452
H                20.6683084178       23.5562490426       11.8924515211
H                21.0712790145       25.3210165795        9.6027997988
H                21.0793516781       25.9610241989       12.1068592407
H                22.7060391018       25.2498541622       12.1679495569
N                23.2641835234       23.0144240612       10.3973851004
C                24.4679332531       22.3523952821        9.9505529430
C                24.2625276018       20.8717925659        9.6261519153
O                24.8049453149       20.3332748620        8.6750281156
C                25.6141902224       22.4476024367       10.9736901707
C                26.9129480498       21.9773295345       10.3234895855
S                28.1404251549       21.3290172009       11.4960296573
C                27.3701456801       19.7319638040       11.8055994523
H                22.8245343907       22.7168429196       11.2575226982
H                24.7652003291       22.8670957866        9.0302015768
H                25.6986839880       23.4833088200       11.3049827830
H                25.3429037687       21.8448864693       11.8441453635
H                26.7179887642       21.1645737714        9.6235575613
H                27.3869436703       22.7972970196        9.7927686113
H                27.9679615602       19.1687854852       12.5084254222
H                26.3779638811       19.8737937625       12.2224906095
H                27.2889754194       19.1697597592       10.8800353517
N                23.5389423752       20.1847992449       10.5232535820
C                23.2598400573       18.7828013113       10.3116677740
C                22.5546799442       18.5022345847        8.9738659990
O                22.8318923597       17.5265524300        8.2978308448
H                23.0243492253       20.6833965088       11.2338465490
H                24.1995331124       18.2225249791       10.3301759724
H                22.6183679371       18.4234615612       11.1157862840
N                21.5634395374       19.3644113908        8.7184203547
C                20.8295875122       19.4642303424        7.4679286990
C                20.2485948086       18.1010434756        7.0494279583
O                20.3846200327       17.6454488053        5.9307668685
C                21.6757043005       20.0137821329        6.3125181160
C                22.3245262850       21.3764029379        6.5651793820
C                23.2348452096       21.7112593244        5.3859199542
C                21.2967650206       22.4895447000        6.7340403970
H                21.4496774198       20.1161042608        9.3884301676
H                19.9924855487       20.1444733436        7.6547700263
H                22.4528501684       19.2819623216        6.0837242810
H                21.0339014479       20.0834459442        5.4335795877
H                22.9364659227       21.3177772324        7.4695462215
H                23.7280733540       22.6660952119        5.5503256134
H                23.9973544378       20.9480570999        5.2524676006
H                22.6429772261       21.7782526052        4.4763091569
H                21.7951181311       23.4378609303        6.9290333049
H                20.7025086221       22.5988258737        5.8305354069
H                20.6250215524       22.3118168916        7.5675364723
N                19.5099540325       17.4840739098        7.9946987783
C                18.9989204649       16.1504797290        7.7851418088
C                17.5038819591       16.0957946281        8.0560200739
O                16.9777487266       16.6908026981        8.9859942240
C                19.6644763354       15.1492061348        8.7416941475
C                21.1335591287       14.9181026697        8.4001378040
C                21.8191822809       14.1588629940        9.5241369635
O                21.3873584151       13.1107250399        9.9797440740
N                22.9266751760       14.7577793263        9.9878899673
H                19.4638438157       17.8532642207        8.9319954096
H                19.2113097029       15.8931771004        6.7440223577
H                19.5888223483       15.5540306204        9.7531439894
H                19.1370933817       14.1956346785        8.7195188564
H                21.2131771548       14.3334690306        7.4833219192
H                21.6414568929       15.8667627342        8.2412871256
H                23.2586859270       15.6225519603        9.5911492598
H                23.4449990520       14.3475645521       10.7502673921
N                16.0539933007       13.8243422195        9.4445867131
C                15.9009986824       13.3385850199       10.8045036777
C                15.8001181641       14.4624026395       11.8522157866
O                15.3405785393       14.2270158360       12.9643188131
C                17.0317202966       12.3703694330       11.1718744114
C                18.4198512194       13.0159159571       11.1940437445
S                19.3286897642       12.7726244510       12.7559059080
C                18.3173053272       13.7659622549       13.8901395340
H                16.7780443980       13.4023511453        8.8836887393
H                14.9554310520       12.7813452837       10.8526770864
H                16.8005291425       11.9551227338       12.1535039195
H                17.0142637432       11.5379417791       10.4673682152
H                19.0944310124       12.5725358653       10.4636474893
H                18.3770288041       14.0896821058       11.0148000464
H                18.8823111637       13.7835099880       14.8122809471
H                18.2177620081       14.7688759241       13.4913080304
H                17.3396884733       13.3208662953       14.0520158389
N                16.2520095407       15.6744825177       11.5239262179
C                16.1262085925       16.7796182763       12.4685970429
C                14.6593781113       16.9295725281       12.9102220380
O                14.3225970898       17.1224960040       14.0664402993
C                16.6796885941       18.0635830083       11.8604428693
H                16.5185391705       15.9021141513       10.5698539721
H                16.6999168152       16.5289929551       13.3691476556
H                16.6056303729       18.8672546378       12.5858927118
H                17.7269116047       17.9163405575       11.6073107517
H                16.1511231756       18.3382400533       10.9526080322
N                13.1844848000       14.0619670671       14.9748700709
C                13.3307157256       14.2268069637       16.4064607617
C                12.1731004521       15.0657790120       16.9339027308
O                11.5080092739       14.7364658693       17.9174707941
C                14.6613356302       14.8752237264       16.7736933446
C                14.8120429016       15.0366391401       18.2927304349
C                14.6330619652       13.7019044518       19.0138988205
C                16.1680895278       15.6580140197       18.6037316911
H                13.9486433892       14.3169287023       14.3605984046
H                13.2430148261       13.2429089264       16.8786234142
H                15.4697039737       14.2499291780       16.3909537557
H                14.7275130179       15.8470606228       16.2807568444
H                14.0388851746       15.7173627714       18.6518344464
H                14.8557583327       13.7931536516       20.0736278543
H                13.6063405410       13.3497060944       18.9430647974
H                15.2878303525       12.9393228096       18.5994385620
H                16.2883105145       15.7809967940       19.6744489453
H                16.9639461788       15.0211025097       18.2341550140
H                16.2621731559       16.6265879274       18.1241640627
N                11.9603792563       16.2018919703       16.2775314894
C                10.8985144949       17.1102480410       16.6631744342
C                 9.5740225373       16.3659698524       16.8975400498
O                 8.8815224209       16.6144671079       17.8916146382
C                10.7152344973       18.2032459953       15.6123283578
C                11.9107745847       19.1612041859       15.5618046015
C                11.6995206126       20.2228211070       14.4924147436
O                11.4790801935       19.9447577203       13.3224359807
N                11.8312159139       21.4853478681       14.9268585983
H                12.5413763872       16.4340935335       15.4813655103
H                11.1674068681       17.5672222169       17.6238065295
H                10.5666916316       17.7274164774       14.6429997777
H                 9.8072527313       18.7537559668       15.8606634708
H                12.0614758555       19.6232656038       16.5364878589
H                12.8153089451       18.6136504723       15.2868014862
H                11.9477447391       21.6842772228       15.9058121711
H                11.6693604910       22.2484178890       14.2870072807
H                15.7726939498       12.4870756675       21.7109265416
H                19.0179478842       11.2080455244       21.8936188441
H                18.1155707138       10.7656312268       17.7324575897
H                21.4461344652       11.5534222464       17.0905854845
H                29.6298620949       19.1831808714       13.5476196310
H                30.1064464173       19.4368568608       16.8122966879
H                31.2372516640       23.7079299036       15.3505644903
H                29.2404490996       25.5726409165       19.8509053991
H                26.9714393840       28.4519368907       17.5489743199
H                24.1963040400       30.7772262655       18.9899680567
H                16.5814707671       23.2904949104       25.7701193477
H                16.9073800495       15.5567822619        7.4613343241
H                15.2889878649       13.6902919004        8.9898371170
H                13.9250350500       16.8698285983       12.2340778735
H                13.0302560669       13.1955366041       14.7864244539
H                 9.2663720015       15.6748147246       16.2435861239
