616
Properties=species:S:1:pos:R:3 pbc="F F F"
N      46.31500000      37.25800000      52.54800000 
C      46.45900000      38.68100000      52.46300000 
C      47.88800000      39.04200000      52.15600000 
O      48.81100000      38.23100000      52.34800000 
C      45.96100000      39.33600000      53.75600000 
C      46.81800000      38.94000000      54.94300000 
C      44.50400000      38.96100000      53.97600000 
C      46.35300000      39.58300000      56.23900000 
H      46.70200000      36.77200000      53.32200000 
H      45.84200000      39.02100000      51.65200000 
H      46.04000000      40.40300000      53.61600000 
H      46.79600000      37.86400000      55.06100000 
H      47.84200000      39.21600000      54.74800000 
H      44.05300000      39.60300000      54.71800000 
H      43.93800000      39.04600000      53.06300000 
H      44.43500000      37.94000000      54.32400000 
H      47.06700000      39.41900000      57.03200000 
H      46.23400000      40.65100000      56.11200000 
H      45.40300000      39.17700000      56.55600000 
N      44.02200000      52.61000000      58.98600000 
C      44.44400000      51.35200000      59.53000000 
C      44.83800000      51.51900000      60.96400000 
O      45.62700000      52.41600000      61.32300000 
H      43.12900000      52.93000000      59.26900000 
H      43.65000000      50.63600000      59.42700000 
H      45.30300000      51.00200000      58.98100000 
N      44.30800000      50.65900000      61.81200000 
C      44.66100000      50.63900000      63.19600000 
C      44.54200000      49.22900000      63.68900000 
O      43.83600000      48.37900000      63.12500000 
C      43.88500000      51.65500000      64.01300000 
C      42.38300000      51.66100000      63.87000000 
O      41.81100000      50.72400000      63.24800000 
O      41.80400000      52.64900000      64.40400000 
H      43.60400000      50.02100000      61.52600000 
H      45.70400000      50.89500000      63.26100000 
H      44.12200000      51.55300000      65.06300000 
H      44.21500000      52.63600000      63.71300000 
N      45.30300000      48.97100000      64.75000000 
C      45.28400000      47.70600000      65.43500000 
C      44.48300000      47.88500000      66.69300000 
O      44.77100000      48.84400000      67.45200000 
C      46.70500000      47.32000000      65.80700000 
C      46.79000000      46.10200000      66.71100000 
C      46.24100000      44.86500000      66.01800000 
C      48.23200000      45.88800000      67.13400000 
H      45.94100000      49.66100000      65.08600000 
H      44.82500000      46.97800000      64.79900000 
H      47.25200000      47.13200000      64.89400000 
H      47.16200000      48.16900000      66.29100000 
H      46.20400000      46.29200000      67.60100000 
H      46.30100000      44.00600000      66.67100000 
H      45.20800000      44.98500000      65.72400000 
H      46.82100000      44.65800000      65.12900000 
H      48.32000000      45.04900000      67.80800000 
H      48.84800000      45.69100000      66.26400000 
H      48.62000000      46.76700000      67.62800000 
N      43.51900000      47.03800000      66.96200000 
C      42.69200000      47.17800000      68.13800000 
C      42.91000000      45.98200000      69.03300000 
O      43.04200000      44.85700000      68.51700000 
C      41.21000000      47.22300000      67.75600000 
C      40.88900000      48.00600000      66.49100000 
C      39.52200000      47.58000000      65.98500000 
C      40.94500000      49.50600000      66.69500000 
H      43.26500000      46.34400000      66.28400000 
H      42.98600000      48.07400000      68.64200000 
H      40.87600000      46.20900000      67.61800000 
H      40.66000000      47.63200000      68.59300000 
H      41.61000000      47.73900000      65.73700000 
H      39.25100000      48.14700000      65.10400000 
H      39.52700000      46.53400000      65.72800000 
H      38.76500000      47.74700000      66.74100000 
H      40.68200000      50.01200000      65.77600000 
H      40.24100000      49.80800000      67.46200000 
H      41.92600000      49.83900000      66.98200000 
N      42.90600000      46.19200000      70.34000000 
C      43.07800000      45.11900000      71.30000000 
C      41.99000000      45.19600000      72.34000000 
O      41.89600000      46.20000000      73.07400000 
C      44.42300000      45.23700000      72.00400000 
C      45.60600000      44.95800000      71.09300000 
C      46.90500000      45.24100000      71.82900000 
C      45.57400000      43.52200000      70.60700000 
H      42.84700000      47.12800000      70.69200000 
H      43.00100000      44.19500000      70.77100000 
H      44.49400000      46.23000000      72.41500000 
H      44.45000000      44.53900000      72.83200000 
H      45.54200000      45.61900000      70.23800000 
H      47.75900000      45.07100000      71.18500000 
H      46.94500000      46.26200000      72.18500000 
H      46.99800000      44.58400000      72.68300000 
H      46.44800000      43.28900000      70.01700000 
H      45.55500000      42.84600000      71.45600000 
H      44.70000000      43.33500000      70.00900000 
N      41.21100000      44.13100000      72.45300000 
C      40.11000000      44.03200000      73.38400000 
C      40.33100000      42.84900000      74.29000000 
O      40.44500000      41.70800000      73.79400000 
C      38.81400000      43.81600000      72.63200000 
C      38.41400000      44.98500000      71.76900000 
O      38.77800000      46.13800000      72.12400000 
O      37.69900000      44.72100000      70.75800000 
H      41.36500000      43.36100000      71.83000000 
H      40.06900000      44.94800000      73.94200000 
H      38.90600000      42.94500000      72.00800000 
H      38.01100000      43.63500000      73.33500000 
N      54.17100000      45.69700000      72.05500000 
C      53.84800000      46.18000000      70.72600000 
C      55.01000000      47.03500000      70.28900000 
O      55.22900000      48.12100000      70.85700000 
C      52.53600000      46.95500000      70.72800000 
C      51.36800000      46.02900000      71.09700000 
C      52.29200000      47.59500000      69.37000000 
C      50.68200000      46.40000000      72.40000000 
H      54.34300000      46.37100000      72.76300000 
H      53.76900000      45.32400000      70.08500000 
H      52.62700000      47.73200000      71.47000000 
H      50.63700000      46.06800000      70.29900000 
H      51.71400000      45.00800000      71.14400000 
H      51.46700000      48.28800000      69.43200000 
H      53.15000000      48.13700000      69.01000000 
H      52.04200000      46.83500000      68.64500000 
H      49.84000000      45.74900000      72.59200000 
H      51.36800000      46.32300000      73.23400000 
H      50.31800000      47.41300000      72.35900000 
N      42.22700000      48.92800000      73.87200000 
C      43.06800000      49.96600000      73.33500000 
C      43.20600000      49.79400000      71.84600000 
O      42.68300000      48.83500000      71.25200000 
C      44.43900000      49.94300000      74.00200000 
O      45.09700000      51.17200000      73.64800000 
C      45.25400000      48.76000000      73.55900000 
H      42.09800000      48.08300000      73.35000000 
H      42.62300000      50.92500000      73.53800000 
H      44.27000000      49.91700000      75.06400000 
H      45.49100000      51.61700000      74.39000000 
H      46.16000000      48.67200000      74.13100000 
H      44.68000000      47.86100000      73.68700000 
H      45.52100000      48.85700000      72.51600000 
N      43.94100000      50.70300000      71.22400000 
C      44.30600000      50.57300000      69.84200000 
C      45.60200000      51.28500000      69.60500000 
O      45.91700000      52.27900000      70.28300000 
C      43.22800000      51.18300000      68.95300000 
O      43.66600000      51.33200000      67.60500000 
H      44.40100000      51.40100000      71.76800000 
H      44.41900000      49.53600000      69.60000000 
H      42.35200000      50.56000000      69.00800000 
H      42.99000000      52.16400000      69.31000000 
H      44.00400000      50.50900000      67.25900000 
N      46.32600000      50.80200000      68.60800000 
C      47.50700000      51.44800000      68.09000000 
C      47.27600000      51.69200000      66.61700000 
O      47.45600000      50.77900000      65.78100000 
C      48.76000000      50.62100000      68.32000000 
C      48.89100000      50.26000000      69.80000000 
C      49.96900000      51.40700000      67.83800000 
C      48.55900000      48.81300000      70.11600000 
H      45.99500000      49.99300000      68.13000000 
H      47.61800000      52.38400000      68.60300000 
H      48.67000000      49.71700000      67.73800000 
H      49.90300000      50.46000000      70.12300000 
H      48.25900000      50.90800000      70.38700000 
H      50.87200000      50.82500000      67.95700000 
H      49.87900000      51.68900000      66.79800000 
H      50.07500000      52.30700000      68.42500000 
H      48.66300000      48.62300000      71.17700000 
H      47.54600000      48.57100000      69.82400000 
H      49.22600000      48.14700000      69.59100000 
N      46.87100000      52.89200000      66.23300000 
C      46.75800000      53.22400000      64.83200000 
C      48.07700000      53.29400000      64.12700000 
O      49.13900000      53.54300000      64.72000000 
C      46.10700000      54.61000000      64.84000000 
C      45.34300000      54.63100000      66.15100000 
C      46.28500000      53.91600000      67.10300000 
H      46.14000000      52.50900000      64.33500000 
H      46.87800000      55.36300000      64.84800000 
H      45.49200000      54.76100000      63.97000000 
H      45.10500000      55.62900000      66.48200000 
H      44.42900000      54.06600000      66.05700000 
H      47.05200000      54.57600000      67.47600000 
H      45.77600000      53.45700000      67.92600000 
N      48.00500000      53.14800000      62.80900000 
C      49.13900000      53.35800000      61.96000000 
C      49.48200000      54.82000000      61.83000000 
O      48.81400000      55.73200000      62.31100000 
C      48.87900000      52.75800000      60.58400000 
C      49.39700000      51.34200000      60.43100000 
C      50.91500000      51.30600000      60.39600000 
C      48.86200000      50.39100000      61.48800000 
H      47.13700000      52.89500000      62.37900000 
H      49.99700000      52.89200000      62.41000000 
H      47.81900000      52.78600000      60.39700000 
H      49.35200000      53.36500000      59.83100000 
H      49.02800000      51.01600000      59.47400000 
H      51.27300000      50.32000000      60.14100000 
H      51.30800000      52.00300000      59.67000000 
H      51.33200000      51.56200000      61.36400000 
H      49.17200000      49.37800000      61.26300000 
H      49.24100000      50.64700000      62.46700000 
H      47.78100000      50.41900000      61.52800000 
N      55.91500000      44.79900000      62.45400000 
C      55.34100000      45.04900000      63.75600000 
C      55.45300000      43.74000000      64.47700000 
O      55.03800000      42.69300000      63.94300000 
C      53.90700000      45.53400000      63.60100000 
C      53.07900000      45.74100000      64.85800000 
C      53.65900000      46.75600000      65.82500000 
C      51.68400000      46.21400000      64.45700000 
H      55.91200000      43.85500000      62.14200000 
H      55.94400000      45.78100000      64.25600000 
H      53.96000000      46.46400000      63.06100000 
H      53.41400000      44.82000000      62.96200000 
H      52.99300000      44.80100000      65.37300000 
H      53.02100000      46.83600000      66.69000000 
H      54.64800000      46.49300000      66.16600000 
H      53.69800000      47.72800000      65.35300000 
H      51.16800000      46.63700000      65.30800000 
H      51.77300000      46.99100000      63.70900000 
H      51.07600000      45.42200000      64.05000000 
N      54.45000000      41.72800000      67.82400000 
C      53.51300000      41.75800000      68.91400000 
C      53.58700000      40.45600000      69.64100000 
O      53.38600000      39.37100000      69.06300000 
C      52.09500000      42.04800000      68.45600000 
C      51.17800000      42.01800000      69.66700000 
C      52.06200000      43.40700000      67.78400000 
H      54.46200000      40.93800000      67.22400000 
H      53.82300000      42.54500000      69.57100000 
H      51.80200000      41.28300000      67.75300000 
H      50.17800000      42.32600000      69.40400000 
H      51.12600000      41.02800000      70.09500000 
H      51.55700000      42.69100000      70.42500000 
H      51.07600000      43.62600000      67.40400000 
H      52.33500000      44.17200000      68.49600000 
H      52.76100000      43.44700000      66.96500000 
N      51.71900000      38.91600000      72.91400000 
C      50.67400000      39.03800000      73.90400000 
C      50.79300000      37.77900000      74.71100000 
O      50.53000000      36.66600000      74.21500000 
C      49.32000000      39.27800000      73.26100000 
C      49.35000000      40.66300000      72.62500000 
C      48.22200000      39.13800000      74.29500000 
C      48.04300000      41.06500000      71.96500000 
H      51.68300000      38.12200000      72.31200000 
H      50.91600000      39.87700000      74.52600000 
H      49.18500000      38.53900000      72.48300000 
H      49.60800000      41.39000000      73.38700000 
H      50.14100000      40.68500000      71.89500000 
H      47.25400000      39.34700000      73.86300000 
H      48.19900000      38.13800000      74.70300000 
H      48.38500000      39.83700000      75.09800000 
H      48.17100000      41.95500000      71.36600000 
H      47.68000000      40.27400000      71.31900000 
H      47.28000000      41.27300000      72.70200000 
N      49.27300000      34.51600000      71.80500000 
C      49.08400000      34.95600000      70.44800000 
C      50.33800000      35.66000000      70.03100000 
O      50.83400000      36.56100000      70.73600000 
C      47.85800000      35.85700000      70.29200000 
C      47.31500000      35.84700000      68.89400000 
C      47.78700000      36.70100000      67.90800000 
C      46.31500000      34.94900000      68.56000000 
C      47.27900000      36.64700000      66.62700000 
C      45.79700000      34.88800000      67.28100000 
C      46.29300000      35.73300000      66.30700000 
O      45.80800000      35.63400000      65.03200000 
H      49.57900000      35.18500000      72.47600000 
H      48.94600000      34.07600000      69.85400000 
H      47.10500000      35.47600000      70.96300000 
H      48.11100000      36.85600000      70.61200000 
H      48.55900000      37.40900000      68.13300000 
H      45.92200000      34.30500000      69.31800000 
H      47.64000000      37.30300000      65.86900000 
H      45.00600000      34.21200000      67.03700000 
H      45.70900000      36.49900000      64.58700000 
N      52.55700000      36.71100000      66.27900000 
C      52.66100000      36.77700000      64.84400000 
C      53.79500000      37.71300000      64.54000000 
O      53.99500000      38.69900000      65.27100000 
C      51.40300000      37.36400000      64.22400000 
C      50.15500000      36.51600000      64.39000000 
C      49.00900000      37.04100000      63.53200000 
C      48.77700000      38.51500000      63.75600000 
N      47.59600000      38.99700000      63.00000000 
H      52.85100000      37.51800000      66.77600000 
H      52.85500000      35.79200000      64.45700000 
H      51.25000000      38.31600000      64.70100000 
H      51.58700000      37.54500000      63.17300000 
H      50.36200000      35.49700000      64.11900000 
H      49.86000000      36.51500000      65.42700000 
H      49.25100000      36.89600000      62.48700000 
H      48.10600000      36.48700000      63.73600000 
H      48.61400000      38.76000000      64.78900000 
H      49.61000000      39.07500000      63.40200000 
H      47.58200000      40.00200000      63.01800000 
H      47.64200000      38.71400000      62.03600000 
H      46.70200000      38.66000000      63.39800000 
N      53.46400000      41.19900000      60.40200000 
C      52.07400000      41.05200000      60.09000000 
C      51.71700000      41.98600000      58.97000000 
O      52.17800000      43.14200000      58.93400000 
C      51.11800000      41.24000000      61.29300000 
C      51.72500000      41.72500000      62.61300000 
C      51.42400000      43.18100000      62.87800000 
C      51.22300000      40.89400000      63.77200000 
H      53.76300000      41.52700000      61.28500000 
H      51.95200000      40.04600000      59.74000000 
H      50.33000000      41.92000000      61.00600000 
H      50.64400000      40.28400000      61.46100000 
H      52.78600000      41.60000000      62.61500000 
H      51.92400000      43.48700000      63.78100000 
H      51.75300000      43.81300000      62.06500000 
H      50.36000000      43.32100000      63.01500000 
H      51.74100000      41.15500000      64.68600000 
H      50.16200000      41.04900000      63.92300000 
H      51.40200000      39.85700000      63.56800000 
N      50.87800000      41.55200000      58.03800000 
C      50.46700000      42.43400000      56.96700000 
C      49.76100000      43.65000000      57.46200000 
O      49.28800000      43.75000000      58.60500000 
C      49.51300000      41.58400000      56.13100000 
C      50.01800000      40.17500000      56.36700000 
C      50.40400000      40.18300000      57.83500000 
H      51.31700000      42.73300000      56.38100000 
H      48.50700000      41.68800000      56.51300000 
H      49.52100000      41.88700000      55.09900000 
H      49.28500000      39.42400000      56.15000000 
H      50.89100000      39.99300000      55.76300000 
H      49.55300000      39.98000000      58.46400000 
H      51.17500000      39.46900000      58.04400000 
N      46.71800000      45.46200000      57.25000000 
C      45.34300000      45.41600000      56.83700000 
C      44.61900000      46.67600000      57.22800000 
O      45.00500000      47.42600000      58.13300000 
C      44.60700000      44.19100000      57.39300000 
C      44.14900000      44.43700000      58.81700000 
C      43.44200000      43.81200000      56.48600000 
H      46.97300000      45.16900000      58.16300000 
H      45.34600000      45.35400000      55.76300000 
H      45.32800000      43.38700000      57.38500000 
H      43.79800000      43.53500000      59.28400000 
H      44.94900000      44.84000000      59.42100000 
H      43.33700000      45.14600000      58.83000000 
H      43.09100000      42.81900000      56.70800000 
H      42.61100000      44.48100000      56.62200000 
H      43.74500000      43.83300000      55.44600000 
N      43.47700000      46.90100000      56.57500000 
C      42.62600000      48.03100000      56.84300000 
C      42.14700000      48.06000000      58.27200000 
O      42.17600000      49.12800000      58.90200000 
C      41.43800000      47.91400000      55.90200000 
C      40.36800000      48.97900000      56.04800000 
C      40.76900000      50.37100000      55.62000000 
N      41.13900000      50.38000000      54.21500000 
C      41.09200000      51.43600000      53.42200000 
N      40.72700000      52.62600000      53.87500000 
N      41.42400000      51.30700000      52.14900000 
H      43.23300000      46.31300000      55.81300000 
H      43.16700000      48.95000000      56.69500000 
H      41.81700000      47.88500000      54.89400000 
H      40.99100000      46.95300000      56.08700000 
H      39.51300000      48.68000000      55.45900000 
H      40.03900000      49.03300000      57.07600000 
H      39.92800000      51.02700000      55.75900000 
H      41.59400000      50.73900000      56.21100000 
H      41.49100000      49.53700000      53.82500000 
H      40.57200000      52.80600000      54.83800000 
H      40.58600000      53.37400000      53.23700000 
H      41.61500000      50.40900000      51.77200000 
H      41.60400000      52.09800000      51.56600000 
N      41.62400000      46.95000000      58.77500000 
C      41.02800000      46.93800000      60.09700000 
C      41.38400000      45.63600000      60.77200000 
O      40.95700000      44.56600000      60.31000000 
C      39.52400000      47.10100000      59.97600000 
C      38.80900000      47.13600000      61.31200000 
C      37.35900000      47.58400000      61.18600000 
C      37.26600000      49.06200000      60.88100000 
N      35.83700000      49.50300000      60.92200000 
H      41.42800000      46.16400000      58.18700000 
H      41.43800000      47.76100000      60.64900000 
H      39.36000000      48.01900000      59.43000000 
H      39.13600000      46.29300000      59.37200000 
H      38.83400000      46.15600000      61.76300000 
H      39.32500000      47.80800000      61.98600000 
H      36.86500000      47.01900000      60.40900000 
H      36.83600000      47.39000000      62.11300000 
H      37.79600000      49.64000000      61.61100000 
H      37.63100000      49.30200000      59.89800000 
H      35.75600000      50.48300000      60.70800000 
H      35.28200000      48.99300000      60.25600000 
H      35.44300000      49.35600000      61.83500000 
N      42.15100000      45.68700000      61.85700000 
C      42.53300000      44.46800000      62.53700000 
C      42.20300000      44.56300000      64.00100000 
O      42.59000000      45.53700000      64.68100000 
C      44.01100000      44.10800000      62.40300000 
C      44.14400000      42.61200000      62.61400000 
C      45.51900000      42.13000000      63.00800000 
N      46.51700000      42.30500000      61.96100000 
C      46.63100000      41.52200000      60.90200000 
N      45.90100000      40.41500000      60.81300000 
N      47.49300000      41.80600000      59.94300000 
H      42.49200000      46.55600000      62.20400000 
H      41.95300000      43.68200000      62.09700000 
H      44.34600000      44.38200000      61.41700000 
H      44.59400000      44.67000000      63.11900000 
H      43.46900000      42.28800000      63.38900000 
H      43.82500000      42.11400000      61.71300000 
H      45.87600000      42.66700000      63.86600000 
H      45.45900000      41.09100000      63.28600000 
H      47.11400000      43.09700000      62.01800000 
H      45.25000000      40.14800000      61.50700000 
H      45.95900000      39.84800000      60.00000000 
H      48.04200000      42.64000000      59.93100000 
H      47.62200000      41.18200000      59.18100000 
N      41.55100000      43.53300000      64.50300000 
C      41.09400000      43.49900000      65.86200000 
C      41.58800000      42.23600000      66.49900000 
O      41.27500000      41.14200000      65.98400000 
C      39.57300000      43.46300000      65.91200000 
O      39.10300000      44.42700000      64.97100000 
C      39.07600000      43.75500000      67.30500000 
H      41.26200000      42.78200000      63.90300000 
H      41.46800000      44.36500000      66.37300000 
H      39.25000000      42.48400000      65.59600000 
H      38.19100000      44.65800000      65.11900000 
H      37.99500000      43.79600000      67.32200000 
H      39.39200000      42.99100000      68.00100000 
H      39.45800000      44.70500000      67.64100000 
N      42.29900000      42.31500000      67.60300000 
C      42.63500000      41.11600000      68.33300000 
C      41.92200000      41.18700000      69.64800000 
O      42.10600000      42.13100000      70.44500000 
C      44.13600000      40.90100000      68.43400000 
C      44.62600000      40.40900000      67.07400000 
C      44.44500000      39.89800000      69.53400000 
C      46.10600000      40.64500000      66.83200000 
H      42.54400000      43.20900000      67.99300000 
H      42.21900000      40.29400000      67.78300000 
H      44.60000000      41.84500000      68.65900000 
H      44.40300000      39.35600000      67.00200000 
H      44.06300000      40.90000000      66.29200000 
H      45.49900000      39.66100000      69.55600000 
H      44.16800000      40.28900000      70.50400000 
H      43.89300000      38.98600000      69.36500000 
H      46.41200000      40.21700000      65.88500000 
H      46.32000000      41.70400000      66.80700000 
H      46.71100000      40.19700000      67.61100000 
N      41.08200000      40.19400000      69.86500000 
C      40.28500000      40.11500000      71.04600000 
C      40.49200000      38.77400000      71.67900000 
O      40.93000000      37.80700000      71.03900000 
C      38.81700000      40.32600000      70.74100000 
O      38.73200000      41.57200000      70.05600000 
H      40.98300000      39.45800000      69.19600000 
H      40.60400000      40.88500000      71.72200000 
H      38.43300000      39.52900000      70.12400000 
H      38.26500000      40.35500000      71.66800000 
H      37.86300000      41.96000000      70.06800000 
N      40.16700000      38.69500000      72.95900000 
C      40.40100000      37.49700000      73.72900000 
C      39.25300000      37.32300000      74.67000000 
O      38.91900000      38.24300000      75.44600000 
C      41.76300000      37.57100000      74.44400000 
C      42.00300000      38.95000000      75.03300000 
C      42.84600000      37.23500000      73.43900000 
C      43.41800000      39.17300000      75.53000000 
H      39.92600000      39.53200000      73.44700000 
H      40.41300000      36.67100000      73.04300000 
H      41.76500000      36.82800000      75.23200000 
H      41.79900000      39.68100000      74.27200000 
H      41.29600000      39.12200000      75.82300000 
H      43.80000000      37.10400000      73.92500000 
H      42.60700000      36.33700000      72.91400000 
H      42.93500000      38.03200000      72.71700000 
H      43.50300000      40.16500000      75.94500000 
H      43.69100000      38.45700000      76.28800000 
H      44.13000000      39.09600000      74.72400000 
N      41.34600000      33.14400000      71.85600000 
C      41.76700000      34.31100000      71.13400000 
C      41.10000000      34.33200000      69.79200000 
O      40.89100000      33.27900000      69.16400000 
C      43.28400000      34.37700000      70.95200000 
C      43.64800000      35.74900000      70.38200000 
C      43.98900000      34.06600000      72.26400000 
H      41.85400000      32.30000000      71.75600000 
H      41.44800000      35.16800000      71.69300000 
H      43.57000000      33.61700000      70.23600000 
H      44.68400000      35.98000000      70.57800000 
H      43.50100000      35.78300000      69.31500000 
H      43.04000000      36.52200000      70.82100000 
H      45.00800000      34.41800000      72.22900000 
H      43.49900000      34.52700000      73.10500000 
H      44.01400000      33.00200000      72.44500000 
N      40.79700000      35.52700000      69.30900000 
C      40.23300000      35.64700000      67.99000000 
C      40.71700000      36.93900000      67.39000000 
O      40.58600000      38.03400000      67.95900000 
C      38.71700000      35.51400000      68.01700000 
C      38.05700000      36.32100000      69.12000000 
C      36.83100000      37.08500000      68.68300000 
O      36.20300000      36.68600000      67.66400000 
O      36.49300000      38.07500000      69.39900000 
H      40.89500000      36.34900000      69.87300000 
H      40.62800000      34.83700000      67.40600000 
H      38.31100000      35.80000000      67.06000000 
H      38.50600000      34.46200000      68.14500000 
H      37.75300000      35.66800000      69.92700000 
H      38.74900000      37.02300000      69.55100000 
N      41.31300000      36.80400000      66.20800000 
C      41.93400000      37.87500000      65.45200000 
C      41.07000000      38.12100000      64.24400000 
O      41.05400000      37.29200000      63.32100000 
C      43.30900000      37.38900000      65.05600000 
C      44.10300000      38.30300000      64.17200000 
O      43.55000000      39.24800000      63.57400000 
O      45.35300000      38.00900000      64.06600000 
H      41.39100000      35.90000000      65.82100000 
H      41.98300000      38.74800000      66.06500000 
H      43.87500000      37.18300000      65.94700000 
H      43.20500000      36.44900000      64.53200000 
N      40.29500000      39.20200000      64.27100000 
C      39.48900000      39.55200000      63.13400000 
C      40.27000000      40.50000000      62.26300000 
O      40.88400000      41.46600000      62.74700000 
C      38.18400000      40.23400000      63.49600000 
C      37.27000000      39.42300000      64.39500000 
C      35.91200000      40.11400000      64.45400000 
C      35.13300000      39.86300000      65.72500000 
N      34.05800000      40.90200000      65.82500000 
H      40.47600000      39.90800000      64.95500000 
H      39.28600000      38.64800000      62.58900000 
H      38.39700000      41.18100000      63.96400000 
H      37.66900000      40.44700000      62.56700000 
H      37.17200000      38.42000000      64.01800000 
H      37.70300000      39.35500000      65.38300000 
H      36.07200000      41.17700000      64.37000000 
H      35.31200000      39.82100000      63.60200000 
H      34.65200000      38.90400000      65.74200000 
H      35.74600000      39.97000000      66.60200000 
H      33.46300000      40.74600000      66.61800000 
H      34.46400000      41.81800000      65.91600000 
H      33.47900000      40.90200000      64.99800000 
N      40.23900000      40.26900000      60.96400000 
C      41.02700000      41.02400000      60.02100000 
C      40.14700000      41.25600000      58.83000000 
O      39.65500000      40.29500000      58.21300000 
C      42.32700000      40.28100000      59.69800000 
C      42.13500000      38.78800000      59.53000000 
C      42.97400000      40.88000000      58.47100000 
H      39.76100000      39.47100000      60.61500000 
H      41.26300000      41.96700000      60.47100000 
H      42.97100000      40.44900000      60.54800000 
H      43.07800000      38.34000000      59.24500000 
H      41.80700000      38.31800000      60.44500000 
H      41.41300000      38.58900000      58.75700000 
H      43.96800000      40.47900000      58.33000000 
H      42.38900000      40.65300000      57.58900000 
H      43.04400000      41.94600000      58.56400000 
N      39.88700000      42.52300000      58.53100000 
C      38.91600000      42.87600000      57.53000000 
C      39.43000000      44.02700000      56.71800000 
O      40.22400000      44.86200000      57.18000000 
C      37.59000000      43.27600000      58.17100000 
C      36.99000000      42.15200000      58.98300000 
C      35.66200000      42.49500000      59.60600000 
O      35.02300000      43.48900000      59.15400000 
O      35.26000000      41.73300000      60.53600000 
H      40.27600000      43.26700000      59.07800000 
H      38.76300000      42.02200000      56.89400000 
H      37.76600000      44.13100000      58.80900000 
H      36.89800000      43.57800000      57.40500000 
H      36.84500000      41.28100000      58.35500000 
H      37.65800000      41.84900000      59.77300000 
N      38.94200000      44.13900000      55.48600000 
C      39.30200000      45.24600000      54.62800000 
C      38.14300000      45.49000000      53.70600000 
O      37.96800000      44.77600000      52.70300000 
C      40.56800000      44.92200000      53.87600000 
C      40.93000000      45.96800000      52.88100000 
O      40.34400000      47.06200000      52.84100000 
N      41.91900000      45.65900000      52.04500000 
H      38.38100000      43.40800000      55.11000000 
H      39.43800000      46.10300000      55.25100000 
H      41.37600000      44.82900000      54.58900000 
H      40.46300000      43.97600000      53.37600000 
H      42.20900000      46.31200000      51.35700000 
H      42.36400000      44.77100000      52.08000000 
H      45.44075956      37.04519759      52.56846424 
H      48.10785517      39.94680759      51.79132626 
H      44.60419866      53.25232973      59.22777931 
H      40.38536632      42.98053351      75.27981980 
H      53.49063682      45.19692446      72.36649702 
H      55.60324197      46.72957058      69.54416657 
H      42.55676653      48.65335799      74.66309152 
H      50.29940371      55.09890638      61.32595397 
H      55.46194131      45.26499214      61.83143342 
H      55.86156211      43.70488914      65.38905495 
H      54.29645837      42.42565633      67.27655081 
H      53.80256354      40.44005403      70.61735961 
H      51.70208572      39.63238095      72.36947062 
H      51.08800711      37.82291863      75.66548518 
H      48.49535607      34.19962480      72.12930950 
H      50.79097084      35.40974999      69.17531761 
H      51.69845666      36.57462853      66.51203679 
H      54.38646888      37.54252555      63.75189910 
H      53.87400153      40.40102131      60.33038468 
H      49.64848620      44.44192682      56.86183956 
H      47.21184719      44.93913081      56.70896140 
H      38.74304845      36.46289441      74.68295337 
H      41.36874043      33.31299779      72.73969826 
H      37.50137649      46.23329650      53.89528704 
