 282 
 
N               153.3599924853       73.6221381181       92.2658414336
C               154.4063642919       74.4661058699       91.7259868445
C               155.5581806386       73.6328956480       91.1588705220
O               156.0469590025       73.8930369637       90.0579949913
C               154.9319906634       75.4144405820       92.8051040681
C               153.9289374464       76.5435539804       93.0692676273
C               154.3787917028       77.3585383845       94.2687293755
O               155.1153304504       78.3273407442       94.1909994166
N               153.9113024273       76.8895512134       95.4386890752
H               153.0514032188       73.7845579968       93.2178643314
H               154.0041019138       75.0493142423       90.8848631364
H               155.1090780427       74.8356345344       93.7140709425
H               155.8834491618       75.8437186380       92.4855981097
H               153.8818672646       77.1986485914       92.1996221973
H               152.9431030074       76.1228569199       93.2664211947
H               153.2710172180       76.1101528047       95.4478174764
H               154.1455317619       77.3633211235       96.2958001133
N               155.9992876845       72.6566168110       91.9441410787
C               157.1773516976       71.8770891858       91.6222204702
C               157.1025750147       71.2009247238       90.2492208572
O               158.1210192880       70.9431582063       89.6232557703
C               157.4145975619       70.8076023299       92.7038220491
O               156.5845470565       69.6909148972       92.6073906172
H               155.5816024395       72.5226001074       92.8633516467
H               158.0540336536       72.5376106290       91.5866895638
H               158.4395948864       70.4417044858       92.6056686169
H               157.3002351316       71.2963636947       93.6842857224
H               155.6457183116       69.9807311278       92.5683280034
N               156.2860425146       72.3563489455       87.5219936045
C               156.6057832317       73.2122448410       86.3996092420
C               158.1033405161       73.1402166998       86.0733678457
O               158.9688131393       73.5733629674       86.8319552499
C               156.1921422553       74.6596793258       86.6900274113
C               154.6679782368       74.7138506704       86.7387241128
O               153.9904359184       74.8852238052       85.7383925716
N               154.1526025691       74.5416516898       87.9599388026
H               156.3709037403       72.7447876612       88.4540893937
H               156.0410499728       72.8301282778       85.5400937570
H               156.6234795620       74.9813475517       87.6360204877
H               156.5482013055       75.3049203420       85.8876266720
H               153.1565951215       74.4323677052       88.0601388303
H               154.7478798488       74.3113163295       88.7471393736
N               158.3878403668       72.6477314773       84.8643875133
C               159.7424057453       72.4186857506       84.3980563693
C               160.6054436723       73.6790913536       84.2543249555
O               161.7886294298       73.5832040017       83.9758322271
C               159.6705947749       71.7337397026       83.0262786124
O               158.8801762419       70.5790047594       83.1530806151
H               157.6877181659       72.1000569463       84.3772856873
H               160.2715989375       71.7577679756       85.0977589562
H               159.2252989076       72.4310030668       82.3026199037
H               160.6924946877       71.4964988687       82.7112753078
H               158.8910869461       70.0952086972       82.3175487727
N               159.9655800537       74.8548927920       84.3610422765
C               160.6946408811       76.0963319686       84.4343022958
C               161.6310319581       76.1894057328       85.6500326414
O               162.6268485672       76.8992053457       85.5977549681
C               159.6860895395       77.2605817412       84.4800677888
O               158.7100539327       76.9135020067       85.4458034845
C               159.0509435817       77.4974873494       83.1100100784
H               159.0325341426       74.9016986569       84.7464291974
H               161.3400400389       76.1924372146       83.5550218731
H               160.2391599911       78.1549129740       84.8002092697
H               158.1665289987       77.6894170301       85.6265988651
H               158.3241017413       78.3030391938       83.1730558061
H               159.8174117399       77.7721553327       82.3930472771
H               158.5505753855       76.5939070511       82.7740681074
N               161.2458608111       75.5234829680       86.7433045330
C               162.0735818563       75.5019859589       87.9341043780
C               163.4257570335       74.8321219726       87.6250883553
O               163.4770954880       73.7045982289       87.1495964861
C               161.3890484720       74.6834530127       89.0324531369
C               160.2220747826       75.4281875290       89.6643240543
O               160.3756203948       76.2272352304       90.5822249400
N               159.0233225948       75.1297823419       89.1614313703
H               160.4750591376       74.8639412327       86.7025177407
H               162.2613975032       76.5315168196       88.2632649894
H               161.0592006456       73.7351171188       88.6077483837
H               162.1210126424       74.4864720563       89.8165026285
H               158.2079960192       75.5760998338       89.5506202883
H               158.9130322509       74.4778023100       88.3874754359
N               164.5049584807       75.5569313432       87.9334379947
C               165.8376637447       74.9976387226       87.8432279365
C               166.1754225242       74.3031773762       89.1683054076
O               165.3632557666       74.2571202087       90.0844135822
C               166.8525048735       76.0727910611       87.4132467050
O               167.0792201522       77.0762141333       88.3673724159
H               164.3928679345       76.4977915990       88.3318041266
H               165.8011622151       74.2137786590       87.0737318311
H               167.7903317202       75.5910565623       87.1072717660
H               166.4280056074       76.5928302917       86.5517401902
H               167.5148801551       76.7223342353       89.1538634096
N               167.3840657657       73.7177877628       89.2961755694
C               167.5982766156       72.8689506046       90.4539565220
C               167.5609827127       73.6661310476       91.7633165403
O               167.0120000741       73.2012644771       92.7498612245
C               168.8636253728       72.0324498471       90.3016279450
C               168.5857106829       70.9042565457       89.3058216194
C               169.8396734882       70.1352927988       88.9471297291
O               170.5299067282       70.4513132856       87.9865730408
N               170.1311373931       69.0960015251       89.7246987478
H               168.0729827965       73.7183852775       88.5605050931
H               166.7354105767       72.1908229938       90.5385676507
H               169.6924282542       72.6573122289       89.9602937245
H               169.1412276833       71.6213725692       91.2741621056
H               167.8458430842       70.2265735128       89.7294751268
H               168.1844801973       71.3180182216       88.3799480989
H               169.6379600626       68.8935522030       90.5837017306
H               170.8847300145       68.4771926553       89.4574628229
N               168.1341036236       74.8716376305       91.7245426582
C               168.0553329601       75.8153898067       92.8202682664
C               166.5969915494       76.0745368410       93.2216344343
O               166.2322017319       76.0342362371       94.3918588430
C               168.7067982090       77.1241315904       92.3606609395
O               168.2261456502       77.4110625863       91.0610354471
H               168.5294286709       75.2172110607       90.8619652323
H               168.5629423242       75.3971834502       93.7000359077
H               168.4479448629       77.9136796409       93.0713287687
H               169.7959519629       76.9961572607       92.3382696964
H               168.3881120411       78.3377112856       90.8521091874
N               165.7686273309       76.3617289943       92.2159958454
C               164.3617809829       76.6204828637       92.4564311486
C               163.7513352421       75.4593404732       93.2274617451
O               163.0364596813       75.6289490583       94.2128883569
C               163.6260858623       76.7709151395       91.1369105516
C               163.9802464917       78.1015181165       90.3960073131
O               164.2254081121       79.0988837550       91.0899011106
O               163.9664245925       78.0385920856       89.1488598256
H               166.1311933026       76.5555172359       91.2933418992
H               164.2441593740       77.5384854259       93.0503073825
H               163.8601883329       75.9298570751       90.4857828206
H               162.5463705983       76.7861726222       91.3075693699
N               164.0023427315       74.2563166715       92.7130956041
C               163.4575960122       73.0605855267       93.3160657462
C               163.9483771128       72.9219646739       94.7571022660
O               163.1824024437       72.5691854975       95.6502530727
C               163.8253047377       71.8162540796       92.5151018826
C               163.2099707763       71.7613133380       91.1095659702
C               163.7138404651       70.5044811273       90.4029675144
C               161.6852772110       71.7253629454       91.1796690112
H               164.5876647068       74.1665496979       91.8930164927
H               162.3669976711       73.1679377756       93.3833278703
H               164.9160433629       71.7770895432       92.4512500800
H               163.4756673086       70.9423617510       93.0692939522
H               163.5307777746       72.6414054510       90.5398035105
H               163.3293343231       70.4689018166       89.3877156753
H               164.8007833798       70.4965404992       90.3549241604
H               163.3729512502       69.6301973187       90.9522690844
H               161.2649657219       71.5458478706       90.1939774726
H               161.3797698466       70.9205824343       91.8438303557
H               161.2855162644       72.6678242367       91.5470246018
N               165.2318970986       73.2062931010       94.9706825228
C               165.7911685437       73.1293382396       96.3031802646
C               164.9709264419       73.9902497466       97.2549120609
O               164.6683240243       73.6048452539       98.3808765108
C               167.2352643931       73.6091674608       96.3117592425
C               168.1964230059       72.7107477776       95.4569932442
O               167.9511138725       71.4865995103       95.4181175887
O               169.1420502434       73.2983857496       94.9131230759
H               165.8809095786       73.3495521193       94.2040786394
H               165.7460531820       72.0939445481       96.6725745582
H               167.2962929339       74.6264111349       95.9251012567
H               167.6200081731       73.5940644343       97.3342775266
N               164.6422926628       75.1971802243       96.7921600197
C               163.8600482723       76.1232446088       97.5821404536
C               162.4901594235       75.5223594079       97.9255942490
O               162.0651289142       75.4938047814       99.0748470417
C               163.6887515439       77.4380633284       96.8189698690
O               162.9244655955       78.3115331797       97.6099871884
H               164.9703392655       75.4871359809       95.8787212595
H               164.3652186209       76.3190226890       98.5378445601
H               164.6856813225       77.8528780132       96.6159126232
H               163.1958293309       77.2316461181       95.8605402647
H               162.8242381011       79.1451200476       97.1322505879
N               161.8061717995       75.0396942369       96.8885846849
C               160.4775388284       74.4998020021       97.1009656751
C               160.5660747715       73.4470407649       98.2124297986
O               159.7417908422       73.3627497281       99.1131276284
C               159.8768811908       73.9067889677       95.8161459356
C               159.7335412879       74.9983737665       94.7469526433
C               158.5256902375       73.2692129096       96.1338283671
C               159.1712094011       74.4704001449       93.4297318164
H               162.1922320142       75.1099229859       95.9561102073
H               159.8218118136       75.2999496074       97.4750587155
H               160.5634305598       73.1381485251       95.4466114763
H               159.0853053401       75.7935182678       95.1214288370
H               160.7081154318       75.4440882143       94.5446350439
H               158.1141039164       72.7919248256       95.2502351039
H               158.6307130413       72.5229710516       96.9162301641
H               157.8287412820       74.0330963804       96.4689938630
H               159.3249278156       75.2047209726       92.6412841571
H               159.6819875070       73.5543229160       93.1394371964
H               158.1064239045       74.2677507857       93.5064061250
N               161.5928298094       72.6044543707       98.0709916229
C               161.8497097817       71.5375795329       99.0090142491
C               162.0834050997       72.0749355563      100.4115505085
O               161.5400219543       71.5399348279      101.3836699022
C               163.0685827957       70.7181589895       98.5817176534
C               163.3169627777       69.5519591338       99.5396586489
C               162.1675774197       68.5603056509       99.4951023980
O               161.5331392827       68.3700183349       98.4592476126
N               161.9133231719       67.8872510761      100.6154402024
H               162.2170418395       72.6901596953       97.2781150097
H               160.9663027691       70.8846297442       99.0599305539
H               162.8816062635       70.3366244843       97.5762261187
H               163.9413226573       71.3712242209       98.5405639611
H               164.2195657775       69.0199556237       99.2278039622
H               163.4776530147       69.9037036390      100.5578096380
H               162.3732844466       68.1155218311      101.4827282880
H               161.1909978598       67.1668899998      100.6211103037
N               161.3086328829       66.9508806035       95.9715555651
C               161.1241154664       67.4646915837       94.6330782080
C               162.4123419330       68.0212181300       94.0200122328
O               162.3918765841       68.9058442771       93.1745000538
C               159.9837532299       68.5001371388       94.5593017026
C               158.6582266787       67.8616054181       94.9639703081
C               160.2800939753       69.7309338150       95.4141354245
H               161.5039736117       67.6187671996       96.7099343857
H               160.8370202059       66.6018635173       94.0156818323
H               159.9259473815       68.8064171229       93.5100800026
H               157.8368521901       68.5167041265       94.6903272914
H               158.5219445851       66.9129670317       94.4509559017
H               158.6343185859       67.6855893780       96.0366698268
H               159.4623929236       70.4401018036       95.3243717631
H               160.3878305804       69.4618662933       96.4615552438
H               161.1909130373       70.2207846677       95.0783906348
N               163.5494750090       67.4752506666       94.4648629712
C               164.8466329314       67.8939794473       93.9864041576
C               165.3468005077       66.9544202064       92.8814925519
O               164.8096438789       65.8822630210       92.6480944847
C               165.8414449140       67.9077435443       95.1503226629
C               165.4893962942       69.0098479003       96.1514775310
C               166.3648881123       68.8927784208       97.3807151429
O               166.1891444495       68.0101407738       98.2203058072
N               167.3096887921       69.8212998298       97.5027859167
H               163.5474776894       66.6905206015       95.1115717559
H               164.7382261928       68.9009489907       93.5642500992
H               165.7983175625       66.9370654343       95.6470407398
H               166.8585983896       68.0580289725       94.7834836705
H               165.6296125106       69.9868059077       95.6904091126
H               164.4462790034       68.8956795565       96.4542327312
H               167.5249854937       70.4714885803       96.7373527783
H               167.9681248240       69.7562267877       98.2637952377
N               166.3811083809       67.4399541460       92.1809617070
C               167.1657953815       66.6388562469       91.2657242937
C               168.6346677158       66.8081556026       91.6665692073
O               169.0420608697       67.8870239827       92.0940955121
C               167.0022114260       67.1271564420       89.8184075405
C               165.5541547136       67.0726219795       89.3403883126
C               165.3437747097       67.9520675946       88.1191213791
O               166.1559159969       68.7888843266       87.7489223834
N               164.1885438272       67.7384872479       87.4729850911
H               166.8284372938       68.2977813808       92.4763171848
H               166.8247223431       65.6059597134       91.3736060543
H               167.3473578316       68.1611573953       89.7613407237
H               167.6435719702       66.5397009916       89.1609314074
H               165.2586472923       66.0485024455       89.1176532558
H               164.8979138908       67.4522307633       90.1284012684
H               163.4957963766       67.1108499977       87.8438314178
H               163.9462527459       68.3289727909       86.6925700657
N               171.4749626410       73.6093662810       83.8860599620
C               171.6217364459       74.8110034724       83.1126958494
C               173.0873392807       75.1775241113       82.8361979826
O               173.3712753219       76.1751535660       82.1874624885
C               170.9359266967       75.9609768217       83.8663652836
C               169.4643084066       75.6217365354       84.0428536338
O               169.0573746222       74.9040321329       84.9456807870
N               168.6535234493       76.1481424667       83.1170928428
H               171.6706307688       73.7193795186       84.8793231262
H               171.1481931672       74.6409076537       82.1365946440
H               171.4062946738       76.0347527984       84.8491513258
H               171.0822575322       76.8878001190       83.3155221928
H               167.6716574080       75.9198879440       83.1318921003
H               169.0115103719       76.6996581963       82.3570588444
H               152.6167824815       73.7078968255       91.7655571800
H               156.2139850338       70.9654537020       89.8555696869
H               155.4303622831       72.0847281876       87.4584837211
H               162.6796134372       72.8655277641      100.5511914027
H               160.5628869869       66.5205508349       96.2336230159
H               169.2680717313       66.0390514654       91.5812569619
H               170.6290035789       73.3098088700       83.8180995126
H               173.8225562079       74.5980174773       83.1878059050
