 407 
 
N               219.2130000000       63.5360000000      124.0450000000
C               220.1120000000       62.8150000000      123.1370000000
C               221.1000000000       63.6770000000      122.3220000000
O               222.0460000000       63.1260000000      121.7320000000
C               219.3110000000       61.9250000000      122.1820000000
O               218.1240000000       62.6190000000      121.7160000000
C               218.9380000000       60.5750000000      122.8270000000
H               218.3810000000       63.4600000000      123.8410000000
H               220.6680000000       62.2900000000      123.7340000000
H               219.8780000000       61.7310000000      121.4200000000
H               218.3340000000       63.1540000000      121.1030000000
H               218.4330000000       60.0420000000      122.1930000000
H               219.7470000000       60.1010000000      123.0760000000
H               218.3990000000       60.7320000000      123.6180000000
N               220.9040000000       64.9890000000      122.3070000000
C               221.7950000000       65.8730000000      121.5840000000
C               223.2800000000       65.6200000000      121.8930000000
O               224.0230000000       65.2490000000      120.9970000000
C               221.4340000000       67.3300000000      121.8240000000
C               222.1750000000       68.2720000000      120.9510000000
C               221.8760000000       68.3570000000      119.5950000000
C               223.2220000000       69.0380000000      121.4570000000
C               222.6160000000       69.1780000000      118.7840000000
C               223.9380000000       69.8570000000      120.6210000000
C               223.6490000000       69.9270000000      119.2980000000
H               220.2570000000       65.3850000000      122.7120000000
H               221.6710000000       65.6720000000      120.6430000000
H               220.4820000000       67.4480000000      121.6810000000
H               221.6110000000       67.5520000000      122.7520000000
H               221.1760000000       67.8580000000      119.2400000000
H               223.4360000000       68.9940000000      122.3610000000
H               222.4180000000       69.2290000000      117.8770000000
H               224.6310000000       70.3710000000      120.9670000000
H               224.1470000000       70.4790000000      118.7400000000
N               225.3740000000       62.7420000000      120.1870000000
C               225.9100000000       62.7810000000      118.8290000000
C               226.8010000000       63.9950000000      118.5570000000
O               227.5360000000       64.0210000000      117.5710000000
C               224.7720000000       62.7240000000      117.8190000000
O               223.5430000000       63.1760000000      118.3980000000
H               224.7320000000       63.2940000000      120.3370000000
H               226.4790000000       62.0010000000      118.7340000000
H               224.9910000000       63.2730000000      117.0500000000
H               224.6660000000       61.8150000000      117.4980000000
H               222.9310000000       63.1370000000      117.8230000000
N               226.6640000000       65.0300000000      119.3820000000
C               227.4250000000       66.2570000000      119.2540000000
C               228.8610000000       66.1630000000      119.7620000000
O               229.5720000000       67.1520000000      119.8140000000
C               226.6810000000       67.4130000000      119.9440000000
H               226.1140000000       65.0330000000      120.0430000000
H               227.4990000000       66.4280000000      118.3020000000
H               227.1970000000       68.2300000000      119.8540000000
H               225.8120000000       67.5320000000      119.5290000000
H               226.5640000000       67.2070000000      120.8850000000
N               231.0640000000       65.1040000000      118.2220000000
C               231.8600000000       65.3900000000      117.0410000000
C               232.3100000000       66.8390000000      116.9830000000
O               232.9440000000       67.2660000000      116.0350000000
H               230.2390000000       64.9260000000      118.0590000000
H               232.6390000000       64.8120000000      117.0310000000
H               231.3420000000       65.1830000000      116.2470000000
N               231.9160000000       67.5860000000      118.0240000000
C               232.2200000000       68.9910000000      118.1700000000
C               233.3340000000       69.1790000000      119.2250000000
O               234.0110000000       70.1980000000      119.2140000000
C               230.9650000000       69.7780000000      118.5870000000
C               229.8990000000       69.8040000000      117.5000000000
C               228.7600000000       70.7160000000      117.8520000000
C               230.5330000000       70.2000000000      116.1580000000
H               231.4530000000       67.2690000000      118.6750000000
H               232.5260000000       69.3310000000      117.3150000000
H               230.5920000000       69.3830000000      119.3910000000
H               231.2170000000       70.6880000000      118.8090000000
H               229.5270000000       68.9120000000      117.4210000000
H               228.1040000000       70.7050000000      117.1380000000
H               228.3460000000       70.4140000000      118.6750000000
H               229.0930000000       71.6190000000      117.9710000000
H               229.8500000000       70.2150000000      115.4690000000
H               230.9330000000       71.0800000000      116.2360000000
H               231.2170000000       69.5550000000      115.9200000000
N               221.7640000000       72.6210000000      123.5530000000
C               220.9320000000       73.6080000000      122.8260000000
C               220.3930000000       74.5880000000      123.8650000000
O               219.9760000000       74.1930000000      124.9540000000
C               219.7550000000       72.8980000000      122.1250000000
C               220.2470000000       71.8280000000      121.1440000000
C               218.8890000000       73.9010000000      121.3730000000
C               219.1640000000       70.9570000000      120.4620000000
H               221.3810000000       71.8650000000      123.6970000000
H               221.4550000000       74.0650000000      122.1490000000
H               219.2290000000       72.4690000000      122.8180000000
H               220.7630000000       72.2680000000      120.4500000000
H               220.8540000000       71.2390000000      121.6180000000
H               218.1560000000       73.4360000000      120.9400000000
H               218.5340000000       74.5540000000      121.9970000000
H               219.4250000000       74.3530000000      120.7030000000
H               219.5890000000       70.3190000000      119.8670000000
H               218.6580000000       70.4800000000      121.1390000000
H               218.5650000000       71.5250000000      119.9520000000
N               214.0980000000       74.8780000000      119.9570000000
C               214.4520000000       74.6210000000      118.5530000000
C               213.5450000000       75.3880000000      117.6220000000
O               212.2990000000       75.4660000000      117.8240000000
C               214.3540000000       73.1300000000      118.2760000000
C               215.4190000000       72.1610000000      118.7840000000
C               215.6950000000       72.3690000000      120.2680000000
C               214.9260000000       70.7160000000      118.5690000000
H               213.5760000000       74.2830000000      120.2940000000
H               215.3610000000       74.9200000000      118.3970000000
H               213.5040000000       72.8300000000      118.6340000000
H               214.3090000000       73.0230000000      117.3130000000
H               216.2390000000       72.3240000000      118.2920000000
H               216.3740000000       71.7410000000      120.5620000000
H               216.0080000000       73.2750000000      120.4150000000
H               214.8800000000       72.2230000000      120.7730000000
H               215.5980000000       70.0940000000      118.8890000000
H               214.1000000000       70.5800000000      119.0580000000
H               214.7700000000       70.5640000000      117.6240000000
N               212.6420000000       71.2940000000      108.6060000000
C               213.9010000000       71.0870000000      109.2920000000
C               213.8410000000       71.7570000000      110.6710000000
O               213.0120000000       72.6340000000      110.9180000000
C               215.0390000000       71.7360000000      108.5030000000
C               215.2410000000       71.2390000000      107.0890000000
C               216.3770000000       71.9750000000      106.4370000000
C               216.6260000000       71.4970000000      105.0300000000
N               216.8400000000       70.0300000000      105.0190000000
H               212.6590000000       71.8970000000      107.9930000000
H               214.0570000000       70.1330000000      109.3780000000
H               214.8800000000       72.6920000000      108.4700000000
H               215.8650000000       71.6020000000      108.9940000000
H               215.4260000000       70.2870000000      107.0970000000
H               214.4280000000       71.3650000000      106.5750000000
H               216.1810000000       72.9250000000      106.4250000000
H               217.1820000000       71.8580000000      106.9650000000
H               215.8710000000       71.7250000000      104.4650000000
H               217.4020000000       71.9470000000      104.6610000000
H               217.4510000000       69.8230000000      104.4050000000
H               217.1230000000       69.7650000000      105.8200000000
H               216.0740000000       69.6200000000      104.8250000000
N               214.6450000000       71.2280000000      111.5880000000
C               214.7290000000       71.7940000000      112.9110000000
C               216.1080000000       72.4490000000      113.0650000000
O               217.1070000000       71.9190000000      112.5830000000
C               214.5520000000       70.7060000000      113.9610000000
C               213.1350000000       70.1910000000      114.0330000000
C               212.6430000000       69.3060000000      113.0730000000
C               212.2720000000       70.6010000000      115.0540000000
C               211.3350000000       68.8590000000      113.0950000000
C               210.9570000000       70.1730000000      115.0940000000
C               210.4940000000       69.3000000000      114.1070000000
O               209.1730000000       68.8920000000      114.0910000000
H               215.1470000000       70.5420000000      111.4570000000
H               214.0280000000       72.4530000000      113.0350000000
H               215.1500000000       69.9690000000      113.7620000000
H               214.8100000000       71.0540000000      114.8290000000
H               213.2110000000       69.0080000000      112.3990000000
H               212.5870000000       71.1710000000      115.7180000000
H               211.0240000000       68.2730000000      112.4430000000
H               210.3880000000       70.4630000000      115.7700000000
H               208.7700000000       69.2220000000      114.7500000000
N               216.1680000000       73.5790000000      113.7540000000
C               217.4390000000       74.2700000000      113.9870000000
C               217.5600000000       74.6210000000      115.4750000000
O               216.5700000000       74.5800000000      116.2070000000
C               217.5060000000       75.5710000000      113.1540000000
C               217.5630000000       75.3580000000      111.6510000000
C               216.4240000000       75.5490000000      110.8740000000
C               218.7430000000       74.9160000000      110.9990000000
C               216.4610000000       75.3430000000      109.5240000000
C               218.7770000000       74.6890000000      109.6250000000
C               217.6320000000       74.9050000000      108.8940000000
O               217.6400000000       74.6670000000      107.5250000000
H               215.4830000000       73.9680000000      114.0990000000
H               218.1660000000       73.6860000000      113.7210000000
H               216.7300000000       76.1150000000      113.3620000000
H               218.2880000000       76.0760000000      113.4270000000
H               215.6310000000       75.8190000000      111.2770000000
H               219.5130000000       74.7740000000      111.5010000000
H               215.6970000000       75.4960000000      109.0160000000
H               219.5570000000       74.3980000000      109.2110000000
H               218.4050000000       74.4120000000      107.2890000000
N               218.7610000000       74.9450000000      115.9470000000
C               218.9540000000       75.2960000000      117.3530000000
C               220.2740000000       75.9960000000      117.5990000000
O               221.2230000000       75.8750000000      116.7910000000
C               218.8680000000       74.0460000000      118.2130000000
H               219.4770000000       74.9680000000      115.4710000000
H               218.2480000000       75.9160000000      117.5940000000
H               218.9970000000       74.2840000000      119.1440000000
H               217.9960000000       73.6360000000      118.1020000000
H               219.5560000000       73.4190000000      117.9420000000
N               223.2670000000       75.2160000000      114.5720000000
C               223.4990000000       73.9450000000      113.8890000000
C               222.1480000000       73.2950000000      113.5910000000
O               221.1790000000       73.6080000000      114.2810000000
C               224.3050000000       72.9980000000      114.7880000000
C               225.7430000000       73.3430000000      114.8460000000
C               226.2920000000       73.8710000000      115.9900000000
C               226.5740000000       73.1660000000      113.7140000000
C               227.6270000000       74.1910000000      116.0310000000
C               227.9100000000       73.4850000000      113.7430000000
C               228.4230000000       73.9870000000      114.8970000000
O               229.7510000000       74.2920000000      114.9570000000
H               222.7190000000       75.1630000000      115.2330000000
H               223.9920000000       74.1100000000      113.0700000000
H               223.9360000000       73.0190000000      115.6850000000
H               224.2080000000       72.0900000000      114.4620000000
H               225.7580000000       74.0120000000      116.7380000000
H               226.2060000000       72.8250000000      112.9310000000
H               228.0000000000       74.5410000000      116.8070000000
H               228.4480000000       73.3610000000      112.9940000000
H               230.1950000000       73.6870000000      114.5790000000
N               222.0610000000       72.3970000000      112.6070000000
C               220.7660000000       71.7920000000      112.3210000000
C               220.6080000000       70.5440000000      113.1610000000
O               221.5600000000       69.8210000000      113.3730000000
C               220.6380000000       71.4570000000      110.8410000000
C               219.2030000000       71.0470000000      110.4720000000
C               219.1170000000       70.2820000000      109.1650000000
O               218.5710000000       69.1690000000      109.2000000000
O               219.5590000000       70.8110000000      108.1170000000
H               222.7140000000       72.1340000000      112.1130000000
H               220.0640000000       72.4240000000      112.5420000000
H               220.9010000000       72.2260000000      110.3110000000
H               221.2480000000       70.7360000000      110.6180000000
H               218.8360000000       70.5010000000      111.1840000000
H               218.6510000000       71.8420000000      110.4110000000
N               219.3910000000       70.2690000000      113.6040000000
C               219.1100000000       69.0820000000      114.4050000000
C               218.0240000000       68.1630000000      113.8810000000
O               216.9410000000       68.6060000000      113.4860000000
C               218.8160000000       69.5090000000      115.8630000000
C               219.9100000000       70.4790000000      116.3400000000
C               217.4110000000       70.1800000000      115.9750000000
H               218.7040000000       70.7630000000      113.4510000000
H               219.9120000000       68.5390000000      114.3510000000
H               218.8150000000       68.7200000000      116.4270000000
H               219.7280000000       70.7480000000      117.2540000000
H               220.7730000000       70.0390000000      116.2990000000
H               219.9200000000       71.2630000000      115.7680000000
H               217.2480000000       70.4390000000      116.8960000000
H               217.3820000000       70.9670000000      115.4080000000
H               216.7290000000       69.5520000000      115.6910000000
N               218.3150000000       66.8710000000      113.8370000000
C               217.3400000000       65.8760000000      113.3780000000
C               216.3820000000       65.5270000000      114.4910000000
O               216.7430000000       65.5520000000      115.6750000000
C               218.0260000000       64.5990000000      112.8850000000
O               219.4170000000       64.6530000000      113.1010000000
H               219.0750000000       66.5420000000      114.0690000000
H               216.8540000000       66.2700000000      112.6370000000
H               217.6540000000       63.8300000000      113.3450000000
H               217.8470000000       64.4770000000      111.9390000000
H               219.7710000000       63.9430000000      112.8250000000
N               215.1300000000       65.2770000000      114.1300000000
C               214.1360000000       64.9350000000      115.1420000000
C               213.6500000000       63.5230000000      114.8360000000
O               213.3240000000       63.2100000000      113.6910000000
C               212.9540000000       65.9720000000      115.2010000000
C               211.8360000000       65.4590000000      116.1160000000
C               213.4640000000       67.2830000000      115.7020000000
H               214.8380000000       65.2990000000      113.3210000000
H               214.5370000000       64.9690000000      116.0250000000
H               212.5920000000       66.0870000000      114.3090000000
H               211.1160000000       66.1080000000      116.1420000000
H               211.4990000000       64.6160000000      115.7740000000
H               212.1850000000       65.3280000000      117.0110000000
H               212.7350000000       67.9220000000      115.7380000000
H               213.8360000000       67.1680000000      116.5900000000
H               214.1530000000       67.6130000000      115.1040000000
N               213.2180000000       62.4040000000      120.0430000000
C               214.6830000000       62.4880000000      120.1710000000
C               215.2860000000       63.4970000000      119.1840000000
O               214.9590000000       63.4740000000      118.0120000000
C               215.3440000000       61.1520000000      119.9850000000
C               215.0330000000       60.1020000000      121.0690000000
C               215.7100000000       58.7480000000      120.7960000000
O               215.3090000000       58.0210000000      119.8820000000
O               216.6920000000       58.4170000000      121.4900000000
H               212.8890000000       61.6100000000      120.0750000000
H               214.8540000000       62.7940000000      121.0750000000
H               215.0780000000       60.7940000000      119.1240000000
H               216.3040000000       61.2850000000      119.9520000000
H               215.3240000000       60.4370000000      121.9310000000
H               214.0730000000       59.9740000000      121.1240000000
N               216.1120000000       64.4080000000      119.7000000000
C               216.7680000000       65.3540000000      118.8250000000
C               218.2140000000       64.9100000000      118.6580000000
O               218.8000000000       64.4000000000      119.6060000000
C               216.6220000000       66.7920000000      119.3880000000
C               217.1980000000       67.8060000000      118.3970000000
C               215.1380000000       67.0760000000      119.6610000000
H               216.2980000000       64.4880000000      120.5360000000
H               216.3560000000       65.3730000000      117.9470000000
H               217.1170000000       66.8710000000      120.2190000000
H               217.1020000000       68.7010000000      118.7570000000
H               218.1380000000       67.6160000000      118.2490000000
H               216.7200000000       67.7440000000      117.5550000000
H               215.0400000000       67.9740000000      120.0140000000
H               214.6360000000       66.9970000000      118.8350000000
H               214.8000000000       66.4370000000      120.3070000000
N               218.7230000000       64.9790000000      117.4290000000
C               220.0730000000       64.5280000000      117.1370000000
C               220.8430000000       65.4450000000      116.1520000000
O               220.2470000000       66.1110000000      115.3020000000
C               220.0510000000       63.0600000000      116.6770000000
O               219.0020000000       62.8720000000      115.7180000000
C               219.7890000000       62.1520000000      117.8730000000
H               218.2960000000       65.2870000000      116.7490000000
H               220.5770000000       64.5870000000      117.9640000000
H               220.9070000000       62.8410000000      116.2780000000
H               219.1530000000       63.3460000000      115.0410000000
H               219.7760000000       61.2270000000      117.5810000000
H               220.4910000000       62.2720000000      118.5310000000
H               218.9330000000       62.3780000000      118.2700000000
N               222.1550000000       65.4600000000      116.2730000000
C               223.0040000000       66.2670000000      115.4130000000
C               222.7650000000       65.9280000000      113.9350000000
O               223.1600000000       64.8450000000      113.4730000000
C               224.4850000000       66.0400000000      115.7830000000
C               225.5720000000       66.9210000000      115.1880000000
C               225.3190000000       68.3650000000      115.6240000000
C               226.9360000000       66.4400000000      115.6650000000
H               222.5850000000       65.0000000000      116.8590000000
H               222.7820000000       67.2020000000      115.5460000000
H               224.5540000000       66.1130000000      116.7480000000
H               224.7010000000       65.1230000000      115.5520000000
H               225.5570000000       66.8730000000      114.2190000000
H               226.0050000000       68.9410000000      115.2520000000
H               224.4490000000       68.6520000000      115.3050000000
H               225.3420000000       68.4200000000      116.5920000000
H               227.6290000000       67.0030000000      115.2850000000
H               226.9760000000       66.4880000000      116.6330000000
H               227.0730000000       65.5230000000      115.3810000000
N               222.1160000000       66.8360000000      113.2260000000
C               221.8110000000       66.6550000000      111.8130000000
C               223.0570000000       66.8300000000      110.9720000000
O               223.8810000000       67.6920000000      111.2330000000
C               220.7560000000       67.6400000000      111.3850000000
H               221.8370000000       67.5820000000      113.5510000000
H               221.4770000000       65.7540000000      111.6820000000
H               220.5580000000       67.5140000000      110.4440000000
H               219.9500000000       67.4980000000      111.9060000000
H               221.0790000000       68.5430000000      111.5290000000
N               223.2220000000       65.9070000000      110.0210000000
C               224.3550000000       65.9300000000      109.1030000000
C               225.7620000000       65.9370000000      109.7170000000
O               226.7300000000       65.8270000000      108.9860000000
H               222.6790000000       65.2520000000      109.8930000000
H               224.2860000000       65.1570000000      108.5220000000
H               224.2690000000       66.7160000000      108.5410000000
N               225.8580000000       66.0210000000      111.0470000000
C               227.1540000000       66.0520000000      111.7000000000
C               228.0250000000       67.2490000000      111.2930000000
O               229.2490000000       67.1020000000      111.0820000000
H               225.1850000000       66.0610000000      111.5800000000
H               227.0220000000       66.0710000000      112.6610000000
H               227.6300000000       65.2320000000      111.4950000000
N               227.4240000000       68.4280000000      111.1820000000
C               228.1430000000       69.6480000000      110.8100000000
C               229.1900000000       69.9670000000      111.8680000000
O               228.8610000000       70.1210000000      113.0430000000
C               227.1780000000       70.8180000000      110.6850000000
H               226.5840000000       68.5470000000      111.3200000000
H               228.5750000000       69.5050000000      109.9540000000
H               227.6690000000       71.6180000000      110.4380000000
H               226.5170000000       70.6210000000      110.0030000000
H               226.7320000000       70.9620000000      111.5340000000
N               226.8600000000       77.0920000000      110.6630000000
C               226.3340000000       77.5240000000      109.3900000000
C               226.6670000000       78.9590000000      109.0090000000
O               226.6780000000       79.8560000000      109.8650000000
C               224.8010000000       77.3700000000      109.3590000000
C               224.2920000000       75.9610000000      109.6470000000
C               222.7780000000       75.9180000000      109.4790000000
C               224.9730000000       75.0260000000      108.6350000000
H               226.2570000000       76.9010000000      111.2460000000
H               226.7700000000       76.9480000000      108.7430000000
H               224.4150000000       77.9790000000      110.0080000000
H               224.4790000000       77.6440000000      108.4860000000
H               224.4980000000       75.6890000000      110.5550000000
H               222.4570000000       75.0210000000      109.6630000000
H               222.3660000000       76.5410000000      110.0970000000
H               222.5460000000       76.1640000000      108.5700000000
H               224.6750000000       74.1150000000      108.7840000000
H               224.7390000000       75.2990000000      107.7340000000
H               225.9350000000       75.0730000000      108.7470000000
H               219.3132424331       63.2190443909      124.8813555443
H               223.6286484516       65.7593445761      122.8198372815
H               225.0539081583       61.9188524627      120.3601165641
H               229.2300960068       65.2818986287      120.0576831263
H               231.4069355403       64.3903110050      118.6498355217
H               233.4977565417       68.4700683949      119.9110027510
H               222.5090690002       72.4486040862      123.0784983311
H               220.3747845867       75.5678299543      123.6659988457
H               214.8459517320       74.8941081749      120.4573086381
H               213.9259823056       75.8507858549      116.8215740288
H               212.3871736527       70.5279979361      108.2081251820
H               220.3952211108       76.5625815519      118.4140403593
H               224.0456906944       75.5287694152      114.8972938601
H               213.5943364509       62.8437858487      115.5678262813
H               212.8310447878       62.8662405493      120.7112808828
H               230.1521936876       70.0525676712      111.6094241287
H               227.3588332313       76.3520140613      110.5464400677
H               226.8802514845       79.1874843173      108.0590954147
