127
Properties=species:S:1:pos:R:3 pbc="F F F"
N      57.62400000      48.22500000      66.85300000 
C      57.74600000      48.18300000      65.41700000 
C      58.78000000      49.13700000      64.92400000 
O      59.11500000      50.15200000      65.55500000 
C      56.40800000      48.44400000      64.72000000 
C      55.76000000      49.75500000      64.99800000 
C      55.59100000      50.74400000      64.08500000 
C      55.11900000      50.21200000      66.22200000 
N      54.90400000      51.79800000      64.65200000 
C      54.61700000      51.50500000      65.96100000 
C      54.91100000      49.66200000      67.48600000 
C      53.97800000      52.26100000      66.93800000 
C      54.29200000      50.41200000      68.45800000 
C      53.83600000      51.70600000      68.18800000 
H      57.76300000      49.09100000      67.31800000 
H      58.05300000      47.18800000      65.15000000 
H      56.55900000      48.33000000      63.66000000 
H      55.76600000      47.64600000      65.03500000 
H      55.90000000      50.77400000      63.06900000 
H      54.64700000      52.62600000      64.17400000 
H      55.22100000      48.66700000      67.70900000 
H      53.61200000      53.24400000      66.72200000 
H      54.17000000      50.00000000      69.43100000 
H      53.35700000      52.26100000      68.96900000 
N      59.27600000      48.82200000      63.73600000 
C      60.16200000      49.64700000      62.98300000 
C      59.40500000      50.64800000      62.15100000 
O      58.20600000      50.51200000      61.87700000 
C      60.95700000      48.76100000      62.03000000 
C      61.55700000      47.62300000      62.81400000 
O      61.03200000      46.48300000      62.67400000 
O      62.51100000      47.90200000      63.59400000 
H      58.97300000      47.97800000      63.30900000 
H      60.83600000      50.14500000      63.64900000 
H      60.29400000      48.37200000      61.27600000 
H      61.73400000      49.34800000      61.57100000 
N      55.39700000      52.44200000      57.33600000 
C      55.78500000      51.59100000      58.43300000 
C      56.18100000      50.26700000      57.84600000 
O      55.62000000      49.87600000      56.81000000 
C      54.58700000      51.39500000      59.37600000 
C      54.83800000      50.32700000      60.42600000 
C      54.23800000      52.70900000      60.05200000 
H      54.88300000      51.99100000      56.61500000 
H      56.60800000      52.04000000      58.96500000 
H      53.76100000      51.09000000      58.74700000 
H      54.00700000      50.30400000      61.11700000 
H      54.95200000      49.34200000      59.99900000 
H      55.73500000      50.56000000      60.97900000 
H      53.41900000      52.56100000      60.73800000 
H      55.08700000      53.07000000      60.61300000 
H      53.94700000      53.46800000      59.34300000 
N      57.07000000      49.52600000      58.48400000 
C      57.35900000      48.17900000      58.03700000 
C      57.65800000      47.33900000      59.24700000 
O      58.55000000      47.68000000      60.03200000 
C      58.54600000      48.16300000      57.08700000 
C      59.04700000      46.76000000      56.73200000 
C      58.88100000      46.36900000      55.26200000 
N      60.18400000      46.13800000      54.64600000 
C      60.57000000      45.09300000      53.94800000 
N      61.82700000      45.02100000      53.52600000 
N      59.74700000      44.10000000      53.65300000 
H      57.53100000      49.86000000      59.30100000 
H      56.48700000      47.80900000      57.53700000 
H      58.24700000      48.69600000      56.20000000 
H      59.33300000      48.73300000      57.55100000 
H      60.09500000      46.68600000      56.98000000 
H      58.54900000      46.01900000      57.33400000 
H      58.29900000      45.47200000      55.18800000 
H      58.36900000      47.13700000      54.71000000 
H      60.85600000      46.85600000      54.79700000 
H      62.48500000      45.73200000      53.74800000 
H      62.13900000      44.25400000      52.98400000 
H      58.78800000      44.11400000      53.89900000 
H      60.08000000      43.31100000      53.15000000 
N      56.95100000      46.22100000      59.34700000 
C      57.02900000      45.24800000      60.39900000 
C      56.34800000      45.75400000      61.64200000 
O      56.22600000      46.95800000      61.89300000 
C      58.44000000      44.80600000      60.74300000 
C      59.08900000      44.12300000      59.58600000 
O      58.42700000      43.67100000      58.63600000 
N      60.41200000      44.01300000      59.64800000 
H      56.26400000      46.04600000      58.65400000 
H      56.49700000      44.38300000      60.04600000 
H      59.03800000      45.63200000      61.07500000 
H      58.38700000      44.08900000      61.55200000 
H      60.89800000      43.53000000      58.92700000 
H      60.93100000      44.38500000      60.40600000 
N      55.91500000      44.79900000      62.45400000 
C      55.34100000      45.04900000      63.75600000 
C      55.45300000      43.74000000      64.47700000 
O      55.03800000      42.69300000      63.94300000 
C      53.90700000      45.53400000      63.60100000 
C      53.07900000      45.74100000      64.85800000 
C      53.65900000      46.75600000      65.82500000 
C      51.68400000      46.21400000      64.45700000 
H      55.91200000      43.85500000      62.14200000 
H      55.94400000      45.78100000      64.25600000 
H      53.96000000      46.46400000      63.06100000 
H      53.41400000      44.82000000      62.96200000 
H      52.99300000      44.80100000      65.37300000 
H      53.02100000      46.83600000      66.69000000 
H      54.64800000      46.49300000      66.16600000 
H      53.69800000      47.72800000      65.35300000 
H      51.16800000      46.63700000      65.30800000 
H      51.77300000      46.99100000      63.70900000 
H      51.07600000      45.42200000      64.05000000 
N      55.77900000      40.09100000      61.39900000 
C      55.77700000      40.69400000      60.08300000 
C      54.37600000      40.74500000      59.55100000 
O      54.08200000      40.41600000      58.39600000 
C      56.73600000      39.96900000      59.17800000 
C      58.09600000      39.88100000      59.82700000 
O      58.40300000      40.78300000      60.66200000 
O      58.83200000      38.91300000      59.49700000 
H      56.47800000      40.43400000      62.01500000 
H      56.12300000      41.70600000      60.21400000 
H      56.37700000      38.97700000      58.96600000 
H      56.82500000      40.49200000      58.23600000 
H      56.79495040      47.96868049      67.09169869 
H      59.87120276      51.45911086      61.79779445 
H      54.87750104      53.10975434      57.64296086 
H      55.86156211      43.70488914      65.38905495 
H      54.98664115      40.24002208      61.79894984 
H      53.62901456      41.05588379      60.13867680 
