 493 
 
N               138.5090000000       68.9390000000      121.2760000000
C               138.7460000000       70.2520000000      120.6920000000
C               140.2280000000       70.5770000000      120.6040000000
O               140.6840000000       71.1720000000      119.6150000000
C               138.0510000000       71.3050000000      121.5670000000
C               136.5830000000       70.9590000000      121.8450000000
C               135.9860000000       71.8700000000      122.8950000000
O               136.2030000000       71.6740000000      124.1070000000
N               135.1670000000       72.8130000000      122.4550000000
H               138.1540000000       68.9590000000      122.0590000000
H               138.3920000000       70.2410000000      119.7890000000
H               138.5260000000       71.3870000000      122.4080000000
H               138.0990000000       72.1680000000      121.1280000000
H               136.0710000000       71.0320000000      121.0240000000
H               136.5170000000       70.0370000000      122.1400000000
H               135.0450000000       72.9150000000      121.6100000000
H               134.7580000000       73.3220000000      123.0130000000
N               140.9940000000       70.1430000000      121.6070000000
C               142.4410000000       70.3670000000      121.6280000000
C               143.0980000000       69.5710000000      120.5170000000
O               143.7980000000       70.1530000000      119.6850000000
C               143.0840000000       69.9230000000      122.9580000000
O               142.6090000000       68.6300000000      123.3160000000
C               142.8330000000       70.9260000000      124.1010000000
H               140.6920000000       69.7140000000      122.2890000000
H               142.5770000000       71.3210000000      121.5140000000
H               144.0440000000       69.8910000000      122.8200000000
H               142.0810000000       68.3520000000      122.7250000000
H               143.2550000000       70.6040000000      124.9130000000
H               143.2070000000       71.7890000000      123.8630000000
H               141.8790000000       71.0170000000      124.2480000000
N               142.7900000000       68.2710000000      120.4530000000
C               143.3340000000       67.3910000000      119.4090000000
C               142.8820000000       67.8710000000      118.0120000000
O               143.7010000000       68.0950000000      117.1160000000
C               142.9150000000       65.9240000000      119.6560000000
O               143.3380000000       65.4850000000      120.9830000000
C               143.5190000000       65.0060000000      118.6170000000
H               142.2650000000       67.8770000000      121.0080000000
H               144.3020000000       67.4320000000      119.4440000000
H               141.9480000000       65.8820000000      119.5940000000
H               142.8040000000       65.7820000000      121.5600000000
H               143.2430000000       64.0930000000      118.7920000000
H               143.2160000000       65.2720000000      117.7350000000
H               144.4860000000       65.0640000000      118.6570000000
N               141.5810000000       68.1110000000      117.8440000000
C               141.0200000000       68.6150000000      116.5700000000
C               141.6440000000       69.9480000000      116.2340000000
O               141.8140000000       70.2870000000      115.0440000000
C               139.5220000000       68.8270000000      116.7030000000
C               138.7060000000       67.5880000000      116.4850000000
C               137.2600000000       67.7760000000      116.8040000000
O               136.5570000000       68.5330000000      116.1120000000
O               136.8040000000       67.1230000000      117.7520000000
H               140.9930000000       67.9890000000      118.4600000000
H               141.2060000000       67.9630000000      115.8760000000
H               139.3320000000       69.1760000000      117.5880000000
H               139.2430000000       69.5030000000      116.0650000000
H               138.7940000000       67.3080000000      115.5610000000
H               139.0620000000       66.8720000000      117.0340000000
N               141.9970000000       70.6850000000      117.2860000000
C               142.6090000000       71.9880000000      117.1420000000
C               144.0050000000       71.8380000000      116.6100000000
O               144.3730000000       72.5350000000      115.6470000000
H               141.8850000000       70.4370000000      118.1020000000
H               142.0820000000       72.5370000000      116.5410000000
H               142.6270000000       72.4420000000      117.9990000000
N               144.7780000000       70.9520000000      117.2450000000
C               146.1520000000       70.6560000000      116.8530000000
C               146.1480000000       70.2560000000      115.3760000000
O               146.9630000000       70.7600000000      114.5790000000
C               146.7310000000       69.5300000000      117.7500000000
H               144.5110000000       70.5010000000      117.9260000000
H               146.7190000000       71.4340000000      116.9710000000
H               147.6440000000       69.3400000000      117.4820000000
H               146.7190000000       69.8160000000      118.6770000000
H               146.1930000000       68.7290000000      117.6520000000
N               145.2160000000       69.3850000000      115.0030000000
C               145.0840000000       68.9000000000      113.6390000000
C               144.7830000000       69.9970000000      112.6390000000
O               145.3140000000       69.9650000000      111.5460000000
C               144.0550000000       67.7720000000      113.5690000000
C               144.4840000000       66.4810000000      114.2220000000
C               143.2540000000       65.6160000000      114.4790000000
C               145.4710000000       65.7170000000      113.3270000000
H               144.6350000000       69.0560000000      115.5450000000
H               145.9490000000       68.5460000000      113.3820000000
H               143.2340000000       68.0740000000      113.9880000000
H               143.8500000000       67.5960000000      112.6370000000
H               144.9270000000       66.6880000000      115.0600000000
H               143.5250000000       64.7850000000      114.8990000000
H               142.6420000000       66.0890000000      115.0640000000
H               142.8120000000       65.4240000000      113.6370000000
H               145.7330000000       64.8920000000      113.7650000000
H               145.0470000000       65.5120000000      112.4790000000
H               146.2570000000       66.2640000000      113.1710000000
N               143.9500000000       70.9590000000      113.0410000000
C               143.6300000000       72.0890000000      112.1610000000
C               144.9290000000       72.6850000000      111.6660000000
O               145.0940000000       72.9470000000      110.4780000000
C               142.8040000000       73.1930000000      112.8860000000
C               141.2960000000       72.9480000000      112.8440000000
O               140.7290000000       72.6940000000      111.7670000000
N               140.6280000000       73.1030000000      113.9780000000
H               143.5630000000       70.9780000000      113.8090000000
H               143.0870000000       71.7590000000      111.4280000000
H               143.0910000000       73.2470000000      113.8110000000
H               142.9970000000       74.0520000000      112.4790000000
H               139.7710000000       73.0280000000      113.9860000000
H               141.0510000000       73.2780000000      114.7060000000
N               145.8570000000       72.8800000000      112.5980000000
C               147.1800000000       73.4020000000      112.2720000000
C               147.8720000000       72.4790000000      111.2650000000
O               148.3210000000       72.9340000000      110.2250000000
C               147.9970000000       73.5220000000      113.5600000000
C               148.1440000000       74.9490000000      114.1000000000
C               149.0220000000       75.8280000000      113.2090000000
O               150.2020000000       76.0440000000      113.5610000000
O               148.5240000000       76.2660000000      112.1530000000
H               145.7380000000       72.7140000000      113.4330000000
H               147.1010000000       74.2800000000      111.8660000000
H               147.5820000000       72.9730000000      114.2430000000
H               148.8820000000       73.1570000000      113.4020000000
H               147.2660000000       75.3520000000      114.1810000000
H               148.5250000000       74.9160000000      114.9920000000
N               147.9330000000       71.1860000000      111.5670000000
C               148.5900000000       70.2000000000      110.6800000000
C               147.9470000000       70.2650000000      109.2750000000
O               148.6470000000       70.2970000000      108.2820000000
C               148.4210000000       68.7330000000      111.2390000000
C               149.0540000000       68.6150000000      112.6430000000
C               149.0200000000       67.7400000000      110.3130000000
C               149.0610000000       67.2290000000      113.2180000000
H               147.6000000000       70.8480000000      112.2840000000
H               149.5350000000       70.4160000000      110.6360000000
H               147.4720000000       68.5440000000      111.3100000000
H               149.9680000000       68.9380000000      112.6000000000
H               148.5750000000       69.2010000000      113.2500000000
H               148.9050000000       66.8480000000      110.6760000000
H               148.5810000000       67.7970000000      109.4500000000
H               149.9660000000       67.9260000000      110.2070000000
H               149.4740000000       67.2450000000      114.0960000000
H               148.1500000000       66.9060000000      113.2950000000
H               149.5640000000       66.6390000000      112.6350000000
N               146.6120000000       70.2810000000      109.2320000000
C               145.8640000000       70.3090000000      107.9620000000
C               146.3230000000       71.5170000000      107.1720000000
O               146.7060000000       71.3950000000      106.0150000000
C               144.3700000000       70.3610000000      108.2800000000
C               143.4930000000       70.0630000000      107.0710000000
O               143.7570000000       70.5500000000      105.9500000000
N               142.4750000000       69.2410000000      107.2680000000
H               146.1130000000       70.2760000000      109.9330000000
H               146.0270000000       69.5160000000      107.4270000000
H               144.1720000000       69.7220000000      108.9820000000
H               144.1480000000       71.2400000000      108.6250000000
H               141.9650000000       69.0230000000      106.6110000000
H               142.3230000000       68.9250000000      108.0530000000
N               146.3190000000       72.6940000000      107.8070000000
C               146.7420000000       73.9540000000      107.1370000000
C               148.1150000000       73.7210000000      106.5220000000
O               148.3210000000       74.0330000000      105.3450000000
C               146.8450000000       75.0880000000      108.1460000000
C               145.5500000000       75.8340000000      108.3440000000
O               145.1420000000       76.6130000000      107.4880000000
N               144.9070000000       75.6100000000      109.4850000000
H               146.0760000000       72.7940000000      108.6260000000
H               146.0890000000       74.1960000000      106.4610000000
H               147.1360000000       74.7280000000      108.9980000000
H               147.5280000000       75.7110000000      107.8530000000
H               144.1690000000       76.0200000000      109.6500000000
H               145.2290000000       75.0550000000      110.0580000000
N               149.0600000000       73.2190000000      107.3190000000
C               150.4200000000       72.9330000000      106.9070000000
C               150.4210000000       72.0830000000      105.6510000000
O               151.0490000000       72.4410000000      104.6870000000
C               151.2060000000       72.2090000000      108.0030000000
C               151.4140000000       73.0690000000      109.2240000000
O               151.5960000000       74.2930000000      109.1540000000
N               151.4270000000       72.4240000000      110.3870000000
H               148.9130000000       73.0310000000      108.1450000000
H               150.8520000000       73.7840000000      106.7320000000
H               150.7330000000       71.4010000000      108.2560000000
H               152.0680000000       71.9350000000      107.6520000000
H               151.5640000000       72.8570000000      111.1170000000
H               151.2980000000       71.5740000000      110.4090000000
N               149.7510000000       70.9280000000      105.7120000000
C               149.6620000000       70.0090000000      104.5790000000
C               149.1030000000       70.6880000000      103.3480000000
O               149.6300000000       70.5290000000      102.2370000000
C               148.8360000000       68.7760000000      104.9760000000
C               149.5080000000       67.9790000000      106.1030000000
C               148.5790000000       66.8780000000      106.5850000000
C               150.8070000000       67.3760000000      105.5800000000
H               149.3350000000       70.6570000000      106.4150000000
H               150.5580000000       69.7180000000      104.3460000000
H               147.9520000000       69.0570000000      105.2610000000
H               148.7160000000       68.2040000000      104.2020000000
H               149.7020000000       68.5690000000      106.8480000000
H               149.0100000000       66.3790000000      107.2960000000
H               147.7570000000       67.2710000000      106.9180000000
H               148.3760000000       66.2800000000      105.8490000000
H               151.2370000000       66.8710000000      106.2870000000
H               150.6130000000       66.7870000000      104.8340000000
H               151.3980000000       68.0860000000      105.2850000000
N               148.0360000000       71.4500000000      103.5520000000
C               147.3920000000       72.1730000000      102.4700000000
C               148.4420000000       73.0640000000      101.7760000000
O               148.5280000000       73.1530000000      100.5520000000
C               146.2810000000       73.0620000000      103.0980000000
C               145.0390000000       72.2780000000      103.4910000000
C               143.9910000000       73.1590000000      104.1560000000
O               143.9020000000       73.2630000000      105.3770000000
N               143.1410000000       73.8070000000      103.3360000000
H               147.6670000000       71.5610000000      104.3210000000
H               147.0130000000       71.5430000000      101.8380000000
H               146.6360000000       73.5080000000      103.8830000000
H               146.0330000000       73.7540000000      102.4660000000
H               144.6570000000       71.8630000000      102.7020000000
H               145.2880000000       71.5620000000      104.0960000000
H               143.2180000000       73.7230000000      102.4830000000
H               142.5220000000       74.3050000000      103.6640000000
N               149.3230000000       73.6490000000      102.5840000000
C               150.4040000000       74.4990000000      102.0860000000
C               151.2870000000       73.6320000000      101.1450000000
O               151.6330000000       74.0640000000      100.0360000000
C               151.2430000000       75.0710000000      103.2510000000
C               152.2910000000       76.0890000000      102.7940000000
C               151.6180000000       77.2860000000      102.1530000000
N               152.4760000000       78.4860000000      102.0880000000
C               152.5190000000       79.3350000000      101.0670000000
N               151.7560000000       79.1160000000      100.0050000000
N               153.2020000000       80.4600000000      101.1640000000
H               149.3110000000       73.5640000000      103.4400000000
H               150.0380000000       75.2570000000      101.6040000000
H               150.6500000000       75.4920000000      103.8930000000
H               151.6880000000       74.3420000000      103.7110000000
H               152.8230000000       76.3770000000      103.5520000000
H               152.8990000000       75.6750000000      102.1620000000
H               151.3400000000       77.0480000000      101.2550000000
H               150.8140000000       77.5000000000      102.6510000000
H               152.9860000000       78.6470000000      102.7610000000
H               151.2390000000       78.4290000000       99.9810000000
H               151.7780000000       79.6610000000       99.3400000000
H               153.6220000000       80.6470000000      101.8910000000
H               153.2270000000       81.0060000000      100.5000000000
N               155.0360000000       69.8560000000      111.6140000000
C               154.0630000000       68.8080000000      111.8060000000
C               154.4990000000       67.8830000000      112.9070000000
O               153.7900000000       67.6400000000      113.8580000000
C               153.8520000000       67.9840000000      110.5370000000
C               153.3900000000       68.8680000000      109.3810000000
C               152.8000000000       66.9320000000      110.8260000000
C               153.0980000000       68.0980000000      108.0790000000
H               155.2910000000       69.9440000000      110.7980000000
H               153.2270000000       69.2410000000      112.0400000000
H               154.6900000000       67.5700000000      110.2790000000
H               152.5890000000       69.3440000000      109.6510000000
H               154.0710000000       69.5360000000      109.2050000000
H               152.6510000000       66.3970000000      110.0310000000
H               153.1040000000       66.3600000000      111.5480000000
H               151.9710000000       67.3650000000      111.0840000000
H               152.8110000000       68.7200000000      107.3920000000
H               153.9020000000       67.6410000000      107.7860000000
H               152.3970000000       67.4470000000      108.2380000000
N               154.3620000000       69.4320000000      116.2830000000
C               152.9870000000       69.4020000000      116.7980000000
C               152.6670000000       67.9970000000      117.3690000000
O               152.3160000000       67.8550000000      118.5530000000
C               151.9590000000       69.7400000000      115.6530000000
C               150.5310000000       69.7240000000      116.1960000000
C               152.2870000000       71.0690000000      115.0100000000
H               154.4180000000       69.6670000000      115.4580000000
H               152.9100000000       70.0670000000      117.5000000000
H               152.0270000000       69.0580000000      114.9670000000
H               149.9100000000       69.9340000000      115.4810000000
H               150.3290000000       68.8440000000      116.5510000000
H               150.4450000000       70.3840000000      116.9010000000
H               151.6430000000       71.2570000000      114.3090000000
H               152.2500000000       71.7700000000      115.6790000000
H               153.1780000000       71.0330000000      114.6290000000
N               152.1730000000       68.6620000000      121.2770000000
C               150.8390000000       69.0410000000      121.7250000000
C               150.3580000000       68.0180000000      122.7660000000
O               150.5590000000       66.8120000000      122.5940000000
C               149.8350000000       68.9920000000      120.5510000000
O               150.2210000000       69.9140000000      119.5090000000
C               148.4370000000       69.2700000000      121.0520000000
H               152.2210000000       68.4160000000      120.4540000000
H               150.8830000000       69.9390000000      122.0900000000
H               149.8440000000       68.1020000000      120.1660000000
H               150.8200000000       69.5650000000      119.0340000000
H               147.8140000000       69.2370000000      120.3090000000
H               148.1900000000       68.6020000000      121.7100000000
H               148.4080000000       70.1500000000      121.4590000000
N               148.6760000000       63.5560000000      120.1540000000
C               149.0880000000       63.0790000000      118.8580000000
C               150.2500000000       62.1060000000      118.9090000000
O               150.6480000000       61.5820000000      117.8710000000
C               149.4850000000       64.2780000000      117.9870000000
C               148.3700000000       65.1500000000      117.3920000000
C               148.9830000000       66.2780000000      116.5460000000
C               147.4990000000       64.2630000000      116.4720000000
H               149.1140000000       64.2420000000      120.4320000000
H               148.3330000000       62.5980000000      118.4850000000
H               150.0570000000       64.8530000000      118.5190000000
H               150.0230000000       63.9440000000      117.2520000000
H               147.8400000000       65.5350000000      118.1070000000
H               148.2740000000       66.8250000000      116.1730000000
H               149.5550000000       66.8270000000      117.1050000000
H               149.5070000000       65.8940000000      115.8260000000
H               146.7880000000       64.7970000000      116.0860000000
H               148.0480000000       63.8950000000      115.7620000000
H               147.1140000000       63.5390000000      116.9900000000
N               149.6800000000       60.9380000000      114.7240000000
C               149.8350000000       61.4990000000      113.4090000000
C               151.1980000000       62.1880000000      113.3730000000
O               151.5720000000       62.9100000000      114.2920000000
C               148.7190000000       62.5210000000      113.1030000000
C               147.3450000000       61.8600000000      113.1700000000
C               148.9170000000       63.1580000000      111.7030000000
C               147.1950000000       60.6560000000      112.2100000000
H               149.5570000000       61.5170000000      115.3480000000
H               149.7750000000       60.8000000000      112.7390000000
H               148.7700000000       63.2180000000      113.7760000000
H               147.1800000000       61.5630000000      114.0790000000
H               146.6660000000       62.5200000000      112.9600000000
H               148.2050000000       63.7950000000      111.5340000000
H               149.7730000000       63.6140000000      111.6730000000
H               148.8970000000       62.4640000000      111.0260000000
H               146.3050000000       60.2800000000      112.2980000000
H               147.3320000000       60.9510000000      111.2960000000
H               147.8540000000       59.9800000000      112.4330000000
N               145.9380000000       63.4660000000      104.1240000000
C               144.8320000000       64.2620000000      104.6210000000
C               143.5830000000       63.4600000000      104.8710000000
O               142.8640000000       63.7410000000      105.8280000000
C               144.5390000000       65.4420000000      103.6950000000
C               145.5460000000       66.5740000000      103.8930000000
C               145.2730000000       67.8030000000      103.0070000000
C               145.4330000000       67.1020000000      105.3450000000
H               146.2270000000       63.7110000000      103.3520000000
H               145.1170000000       64.6030000000      105.4830000000
H               144.5630000000       65.1440000000      102.7720000000
H               143.6430000000       65.7720000000      103.8630000000
H               146.4110000000       66.1950000000      103.6720000000
H               145.9440000000       68.4820000000      103.1800000000
H               145.3090000000       67.5430000000      102.0730000000
H               144.3940000000       68.1590000000      103.2090000000
H               146.0700000000       67.8210000000      105.4780000000
H               144.5350000000       67.4330000000      105.5000000000
H               145.6240000000       66.3820000000      105.9670000000
N               143.8100000000       62.1510000000      108.2000000000
C               143.5550000000       63.1550000000      109.1970000000
C               142.0670000000       63.3460000000      109.4880000000
O               141.6220000000       63.1170000000      110.6010000000
C               144.2410000000       64.5030000000      108.8400000000
C               143.7980000000       65.5850000000      109.8020000000
C               145.7490000000       64.3440000000      108.8230000000
H               144.2550000000       62.4350000000      107.5210000000
H               143.9530000000       62.8260000000      110.0180000000
H               143.9690000000       64.7720000000      107.9490000000
H               144.2320000000       66.4210000000      109.5710000000
H               142.8360000000       65.6940000000      109.7460000000
H               144.0430000000       65.3340000000      110.7060000000
H               146.1620000000       65.1930000000      108.5990000000
H               146.0540000000       64.0580000000      109.6980000000
H               145.9970000000       63.6800000000      108.1610000000
N               141.3070000000       63.7520000000      108.4840000000
C               139.8970000000       63.9890000000      108.6390000000
C               139.0790000000       62.8150000000      109.1190000000
O               138.2380000000       62.9840000000      110.0020000000
C               139.2930000000       64.5260000000      107.3270000000
C               139.5770000000       66.0120000000      107.0800000000
O               140.7050000000       66.3490000000      106.6690000000
O               138.6820000000       66.8420000000      107.3560000000
H               141.6030000000       63.8970000000      107.6900000000
H               139.8460000000       64.6470000000      109.3490000000
H               139.6440000000       64.0100000000      106.5840000000
H               138.3330000000       64.3860000000      107.3410000000
N               139.9330000000       60.5530000000      111.0510000000
C               140.1470000000       60.4740000000      112.4770000000
C               139.4070000000       61.6190000000      113.2100000000
O               138.6820000000       61.3860000000      114.1720000000
C               141.6630000000       60.5460000000      112.8100000000
C               142.4920000000       59.4240000000      112.1630000000
C               143.9460000000       59.6980000000      112.5280000000
C               142.0560000000       58.0620000000      112.5850000000
H               140.6180000000       60.8200000000      110.6050000000
H               139.7930000000       59.6230000000      112.7800000000
H               142.0100000000       61.4030000000      112.5170000000
H               141.7770000000       60.5070000000      113.7730000000
H               142.3670000000       59.4280000000      111.2010000000
H               144.5120000000       59.0120000000      112.1400000000
H               144.2080000000       60.5660000000      112.1840000000
H               144.0450000000       59.6900000000      113.4930000000
H               142.6100000000       57.3950000000      112.1490000000
H               142.1450000000       57.9770000000      113.5470000000
H               141.1290000000       57.9260000000      112.3330000000
N               139.5360000000       62.8260000000      112.6460000000
C               138.9120000000       64.0490000000      113.1710000000
C               137.4200000000       63.8930000000      113.3950000000
O               136.9020000000       64.2670000000      114.4550000000
C               139.0470000000       65.2120000000      112.2060000000
C               138.3800000000       66.5480000000      112.6850000000
C               138.2330000000       67.5740000000      111.5650000000
N               139.4890000000       68.0910000000      111.0650000000
C               139.5810000000       69.0000000000      110.1060000000
N               138.4780000000       69.4940000000      109.5560000000
N               140.7820000000       69.4150000000      109.6670000000
H               139.9980000000       62.9590000000      111.9330000000
H               139.3760000000       64.2150000000      114.0060000000
H               139.9900000000       65.3750000000      112.0470000000
H               138.6560000000       64.9570000000      111.3560000000
H               137.5050000000       66.3530000000      113.0550000000
H               138.9110000000       66.9310000000      113.4000000000
H               137.7460000000       67.1680000000      110.8300000000
H               137.6950000000       68.3140000000      111.8870000000
H               140.2170000000       67.7910000000      111.4100000000
H               137.7060000000       69.2240000000      109.8230000000
H               138.5350000000       70.0840000000      108.9330000000
H               141.5010000000       69.0900000000      110.0090000000
H               140.8310000000       70.0060000000      109.0440000000
N               136.7330000000       63.3550000000      112.3950000000
C               135.2960000000       63.1740000000      112.4450000000
C               134.8860000000       62.4990000000      113.7230000000
O               133.8730000000       62.8670000000      114.3360000000
C               134.8550000000       62.3600000000      111.1990000000
O               135.8000000000       61.3470000000      110.8700000000
H               137.0940000000       63.0830000000      111.6630000000
H               134.8540000000       64.0370000000      112.4310000000
H               133.9900000000       61.9540000000      111.3670000000
H               134.7450000000       62.9580000000      110.4430000000
H               136.1580000000       61.0580000000      111.5730000000
N               135.6510000000       61.4920000000      114.1330000000
C               135.4170000000       60.7140000000      115.3580000000
C               135.4290000000       61.6270000000      116.5550000000
O               134.4510000000       61.7330000000      117.2580000000
C               136.4960000000       59.6540000000      115.5530000000
C               136.7950000000       58.8470000000      114.2900000000
O               135.8820000000       58.6910000000      113.4470000000
O               137.9150000000       58.3340000000      114.1510000000
H               136.3440000000       61.2310000000      113.6950000000
H               134.5540000000       60.2790000000      115.2700000000
H               137.3120000000       60.0850000000      115.8530000000
H               136.2200000000       59.0470000000      116.2580000000
N               136.5460000000       62.3380000000      116.7340000000
C               136.7340000000       63.2180000000      117.8800000000
C               135.5440000000       64.1500000000      117.9680000000
O               134.9240000000       64.2800000000      119.0270000000
C               138.0220000000       64.0470000000      117.7140000000
C               139.3320000000       63.2300000000      117.6710000000
C               140.5110000000       64.1360000000      117.3980000000
C               139.5250000000       62.4790000000      118.9740000000
H               137.2130000000       62.3200000000      116.1920000000
H               136.8100000000       62.6870000000      118.6880000000
H               137.9530000000       64.5640000000      116.8960000000
H               138.0780000000       64.6810000000      118.4460000000
H               139.2720000000       62.5840000000      116.9500000000
H               141.3250000000       63.6090000000      117.3740000000
H               140.3880000000       64.5790000000      116.5440000000
H               140.5770000000       64.8010000000      118.1010000000
H               140.3500000000       61.9700000000      118.9350000000
H               139.5700000000       63.1110000000      119.7080000000
H               138.7790000000       61.8750000000      119.1130000000
N               135.2170000000       64.7880000000      116.8520000000
C               134.0890000000       65.7060000000      116.7320000000
C               132.7840000000       64.9840000000      117.1380000000
O               132.0980000000       65.4200000000      118.0800000000
C               134.0050000000       66.1970000000      115.3170000000
H               135.6580000000       64.6970000000      116.1200000000
H               134.2150000000       66.4650000000      117.3230000000
H               133.2570000000       66.8080000000      115.2300000000
H               134.8270000000       66.6570000000      115.0850000000
H               133.8770000000       65.4430000000      114.7200000000
H               137.9519124485       68.4707772534      120.7464521556
H               151.5791309150       72.7200992308      101.4332646624
H               154.6842423958       70.6433810095      111.8714834631
H               155.3983702345       67.4476049747      112.8674480949
H               154.8492574789       70.0182876146      116.7613795378
H               152.7418215288       67.1901871593      116.7829498495
H               152.7315735508       69.3613576177      121.3713107144
H               149.8796059456       68.3279300091      123.5876340537
H               147.8076179158       63.7907480451      120.1256114261
H               150.6870700894       61.8945334897      119.7832148775
H               148.9672875602       60.3885104128      114.7341079976
H               151.8051216661       62.0546612033      112.5896584092
H               146.6302152078       63.5229988723      104.6963541165
H               143.3431853397       62.7048659327      104.2608676626
H               144.2846318596       61.4789998334      108.5648840554
H               139.2224100735       61.9092466899      108.7201961735
H               139.7136979332       59.7394918244      110.7345966944
H               132.4905516300       64.1658853210      116.6434533125
