396
Properties=species:S:1:pos:R:3 pbc="F F F"
N      33.11700000      17.58400000      18.56900000 
C      32.78700000      17.42000000      19.96100000 
C      31.71700000      16.36000000      20.03700000 
O      30.89500000      16.25600000      19.11000000 
C      32.28400000      18.75400000      20.53400000 
C      33.19000000      19.89300000      20.15300000 
C      34.56300000      19.75000000      20.21200000 
C      32.68000000      21.09900000      19.69500000 
C      35.41000000      20.75500000      19.81100000 
C      33.52200000      22.13100000      19.32200000 
C      34.88400000      21.95800000      19.39100000 
O      35.68900000      23.02100000      19.07100000 
H      32.35100000      17.71600000      17.95900000 
H      33.66000000      17.09900000      20.49200000 
H      31.29200000      18.94200000      20.15500000 
H      32.20400000      18.65500000      21.60600000 
H      34.98600000      18.83000000      20.52800000 
H      31.62500000      21.24500000      19.64700000 
H      36.46700000      20.61400000      19.83500000 
H      33.12900000      23.06900000      18.99800000 
H      36.62400000      22.84500000      19.17300000 
N      31.70700000      15.56600000      21.10400000 
C      30.73100000      14.52700000      21.24800000 
C      29.97300000      14.71900000      22.52400000 
O      30.44300000      15.36500000      23.47400000 
C      31.33300000      13.12900000      21.24000000 
O      31.86800000      12.76200000      22.50200000 
H      32.34000000      15.74700000      21.85300000 
H      30.05200000      14.60700000      20.41700000 
H      30.55400000      12.41800000      21.03500000 
H      32.07800000      13.07900000      20.46100000 
H      32.56600000      13.32300000      22.84200000 
N      28.78000000      14.16000000      22.56600000 
C      27.86700000      14.32200000      23.67900000 
C      27.31000000      12.94900000      23.92800000 
O      26.39700000      12.51600000      23.20300000 
C      26.76900000      15.29600000      23.27900000 
C      27.32800000      16.67800000      22.94000000 
C      25.71500000      15.40600000      24.36200000 
C      26.52500000      17.35100000      21.84200000 
H      28.42000000      13.72000000      21.74900000 
H      28.41300000      14.67700000      24.53000000 
H      26.31600000      14.88500000      22.38900000 
H      27.32700000      17.28300000      23.83600000 
H      28.35400000      16.60400000      22.61900000 
H      24.95900000      16.11400000      24.06600000 
H      25.23900000      14.45800000      24.55800000 
H      26.16200000      15.76300000      25.27700000 
H      26.83100000      18.38100000      21.69800000 
H      26.66100000      16.82600000      20.90900000 
H      25.46900000      17.34900000      22.07700000 
N      27.86400000      12.19100000      24.86800000 
C      27.30500000      10.88700000      25.10900000 
C      26.08600000      11.05200000      25.98700000 
O      25.97300000      12.05100000      26.70900000 
C      28.33100000       9.93900000      25.71800000 
C      28.57800000      10.29700000      27.16000000 
O      28.01100000       9.59600000      28.03800000 
O      29.28800000      11.32500000      27.37000000 
H      28.48800000      12.56200000      25.54200000 
H      26.98900000      10.49200000      24.16200000 
H      27.96200000       8.93100000      25.64600000 
H      29.24200000      10.03200000      25.15200000 
N      25.14600000      10.11700000      25.92600000 
C      23.86100000      10.28000000      26.57900000 
C      23.21900000       8.89900000      26.56000000 
O      23.97200000       7.91900000      26.39500000 
C      23.07900000      11.43200000      25.93300000 
C      22.46300000      12.42800000      26.91500000 
C      23.46700000      13.44500000      27.44000000 
C      21.31200000      13.16200000      26.24900000 
H      25.31200000       9.26000000      25.45300000 
H      24.02900000      10.51700000      27.62000000 
H      23.76100000      11.96700000      25.29900000 
H      22.31900000      11.03000000      25.28400000 
H      22.08400000      11.89100000      27.77100000 
H      22.98300000      14.08300000      28.16700000 
H      24.31700000      12.97200000      27.89200000 
H      23.83500000      14.06900000      26.63600000 
H      20.85300000      13.85800000      26.93900000 
H      21.67700000      13.72300000      25.39800000 
H      20.55300000      12.47800000      25.90000000 
N      21.91400000       8.67300000      26.73900000 
C      21.48500000       7.29300000      26.91000000 
C      21.93200000       6.39300000      25.79900000 
O      22.24900000       5.21400000      26.00500000 
C      19.96200000       7.36000000      26.87700000 
C      19.59500000       8.79000000      27.24100000 
C      20.84000000       9.63300000      26.99700000 
H      21.87300000       6.89700000      27.82900000 
H      19.62200000       7.13500000      25.88300000 
H      19.52400000       6.65600000      27.56300000 
H      18.77000000       9.14000000      26.64300000 
H      19.29800000       8.84100000      28.26700000 
H      20.70500000      10.28400000      26.15700000 
H      21.07300000      10.22700000      27.86200000 
N      21.78900000       6.90000000      24.58000000 
C      21.84900000       6.09800000      23.39000000 
C      21.44300000       6.99600000      22.26200000 
O      20.48200000       7.77200000      22.40700000 
H      21.48700000       7.83900000      24.48200000 
H      22.82800000       5.68500000      23.23600000 
H      21.14300000       5.28300000      23.45800000 
N      22.15900000       6.95100000      21.15700000 
C      21.90900000       7.84200000      20.05500000 
C      22.56900000       7.25300000      18.83800000 
O      23.33800000       6.28600000      18.91900000 
C      22.35500000       9.28700000      20.34000000 
C      23.58600000       9.45900000      21.21800000 
C      24.79600000       8.68300000      20.72500000 
C      23.93200000      10.94100000      21.27600000 
H      22.91500000       6.31400000      21.06200000 
H      20.84900000       7.85900000      19.86100000 
H      22.53100000       9.78600000      19.39800000 
H      21.53100000       9.79300000      20.82000000 
H      23.34400000       9.12300000      22.21800000 
H      25.65600000       8.91100000      21.34200000 
H      24.63800000       7.61800000      20.75200000 
H      25.02800000       8.96100000      19.70500000 
H      24.72800000      11.13400000      21.97900000 
H      24.26200000      11.27300000      20.29800000 
H      23.07200000      11.53600000      21.55900000 
N      22.25900000       7.80100000      17.66800000 
C      22.84600000       7.32700000      16.45200000 
C      24.32800000       7.57100000      16.45100000 
O      24.85200000       8.45400000      17.13400000 
C      22.25700000       8.07500000      15.26500000 
H      21.66300000       8.59300000      17.63000000 
H      22.67200000       6.26900000      16.35700000 
H      22.66600000       7.69600000      14.34400000 
H      21.18500000       7.95800000      15.25000000 
H      22.49800000       9.12300000      15.34300000 
N      26.14200000      11.50000000      15.84700000 
C      26.70600000      11.77800000      17.14200000 
C      27.76800000      12.84000000      17.05000000 
O      27.92200000      13.68900000      17.94000000 
C      27.27800000      10.48800000      17.68800000 
O      27.76800000      10.76400000      19.00100000 
H      26.36600000      10.64100000      15.39300000 
H      25.94400000      12.14600000      17.80200000 
H      26.49900000       9.74800000      17.71000000 
H      28.07200000      10.14200000      17.05000000 
H      28.06600000       9.97500000      19.44300000 
N      26.19100000      23.08200000      20.10300000 
C      25.72300000      22.29400000      21.21600000 
C      24.23000000      22.42100000      21.32300000 
O      23.51400000      21.41900000      21.46500000 
C      26.43700000      22.71600000      22.49700000 
C      25.69700000      22.19600000      23.71800000 
C      27.86000000      22.18400000      22.47200000 
H      26.78900000      23.86100000      20.27600000 
H      25.91100000      21.25100000      21.02900000 
H      26.46000000      23.79100000      22.52500000 
H      26.28700000      22.36300000      24.60700000 
H      24.74200000      22.68300000      23.84800000 
H      25.52600000      21.13800000      23.62200000 
H      28.41200000      22.54900000      23.32700000 
H      27.84400000      21.10100000      22.51400000 
H      28.37800000      22.49300000      21.57900000 
N      22.35500000      20.46800000      18.54100000 
C      22.28700000      19.03200000      18.65300000 
C      21.39300000      18.66200000      19.80300000 
O      20.63100000      17.68000000      19.76000000 
C      23.66600000      18.40300000      18.84200000 
C      23.96500000      17.28100000      17.85600000 
C      25.26400000      16.60700000      18.26200000 
C      22.85600000      16.24300000      17.78800000 
H      23.21700000      20.95300000      18.68600000 
H      21.81900000      18.65100000      17.76800000 
H      24.41600000      19.17200000      18.74500000 
H      23.75400000      18.01200000      19.84400000 
H      24.08400000      17.72100000      16.87600000 
H      25.51900000      15.80900000      17.58500000 
H      26.08500000      17.31100000      18.28800000 
H      25.14900000      16.18600000      19.25300000 
H      23.14800000      15.43600000      17.13500000 
H      22.66800000      15.83800000      18.77400000 
H      21.92900000      16.65400000      17.42000000 
N      18.10900000      16.14100000      19.63900000 
C      17.88600000      14.95000000      20.42700000 
C      16.47700000      14.94200000      20.93800000 
O      15.74300000      13.94900000      20.84900000 
C      18.84500000      14.95000000      21.62500000 
C      18.38000000      14.13100000      22.78500000 
C      17.84500000      14.63700000      23.92800000 
C      18.38200000      12.68700000      22.93300000 
N      17.51800000      13.61000000      24.78500000 
C      17.84200000      12.40600000      24.20500000 
C      18.78800000      11.63000000      22.12300000 
C      17.73100000      11.10700000      24.68300000 
C      18.67400000      10.34300000      22.59800000 
C      18.15800000      10.08600000      23.87100000 
H      18.89200000      16.73300000      19.84000000 
H      18.00500000      14.06600000      19.82600000 
H      19.81400000      14.62300000      21.27900000 
H      18.94500000      15.97200000      21.95200000 
H      17.66500000      15.65200000      24.19100000 
H      17.12000000      13.72700000      25.68600000 
H      19.17700000      11.81100000      21.14200000 
H      17.33000000      10.91300000      25.65800000 
H      19.00400000       9.52100000      22.00200000 
H      18.09800000       9.07300000      24.21600000 
N      13.80600000      12.12000000      19.61200000 
C      13.67600000      11.10000000      20.62800000 
C      12.75200000      11.59300000      21.71300000 
O      13.16000000      12.12900000      22.74900000 
C      15.03700000      10.75500000      21.19500000 
C      15.86000000       9.91500000      20.27300000 
C      16.57200000      10.47000000      19.22100000 
C      15.95900000       8.55400000      20.48500000 
C      17.37700000       9.68900000      18.41300000 
C      16.76800000       7.75900000      19.69500000 
C      17.48500000       8.33500000      18.66700000 
O      18.33500000       7.60600000      17.87000000 
H      14.51800000      12.80700000      19.74200000 
H      13.23100000      10.23500000      20.17100000 
H      15.54400000      11.67100000      21.43100000 
H      14.88900000      10.22400000      22.12200000 
H      16.51200000      11.52100000      19.04100000 
H      15.41600000       8.10500000      21.29000000 
H      17.93200000      10.11400000      17.60900000 
H      16.85100000       6.70700000      19.88300000 
H      18.39900000       6.68700000      18.11000000 
N      14.17400000       6.01500000      25.79000000 
C      15.34500000       5.85100000      26.59600000 
C      15.30900000       6.80800000      27.75400000 
O      14.78600000       7.92300000      27.66100000 
C      16.63400000       6.06700000      25.80500000 
C      17.06900000       4.78200000      25.17500000 
O      16.38500000       4.23100000      24.29600000 
N      18.20200000       4.24900000      25.63000000 
H      14.17500000       6.65200000      25.02500000 
H      15.33300000       4.85200000      26.99400000 
H      16.48000000       6.80700000      25.03700000 
H      17.39900000       6.42500000      26.47000000 
H      18.51600000       3.38100000      25.26600000 
H      18.74200000       4.68000000      26.33900000 
N      17.63900000       8.76800000      30.82200000 
C      18.91100000       9.43200000      30.87700000 
C      19.67700000       9.04200000      32.10900000 
O      19.17500000       9.12200000      33.24700000 
C      18.75800000      10.94800000      30.71800000 
C      17.52800000      11.50400000      31.40500000 
C      19.99700000      11.68200000      31.21100000 
H      16.84200000       9.21200000      31.20600000 
H      19.45800000       9.07900000      30.03900000 
H      18.65300000      11.11700000      29.65700000 
H      17.50500000      12.56100000      31.23600000 
H      16.61000000      11.10900000      30.99700000 
H      17.55600000      11.31500000      32.46800000 
H      19.94000000      12.72500000      30.94100000 
H      20.06200000      11.62000000      32.28800000 
H      20.90500000      11.27400000      30.79100000 
N      20.91900000       8.61800000      31.90300000 
C      21.73700000       8.03900000      32.96500000 
C      22.45000000       9.12700000      33.73100000 
O      23.68400000       9.28500000      33.70400000 
C      22.67200000       7.12000000      32.20700000 
C      22.89300000       7.85900000      30.89800000 
C      21.52200000       8.40600000      30.57800000 
H      21.09800000       7.51100000      33.65200000 
H      23.57900000       6.92700000      32.75100000 
H      22.16100000       6.18900000      32.02200000 
H      23.58700000       8.67100000      31.04400000 
H      23.25800000       7.22800000      30.10700000 
H      21.56400000       9.32400000      30.02300000 
H      20.92800000       7.69200000      30.03400000 
N      24.19200000      15.40900000      37.62700000 
C      24.82000000      15.66400000      36.35300000 
C      24.23900000      14.73900000      35.32200000 
O      23.96800000      13.55600000      35.60000000 
C      26.33600000      15.51600000      36.50000000 
C      26.85700000      16.73100000      37.27100000 
C      27.03600000      15.37500000      35.16300000 
C      27.94100000      16.39500000      38.28000000 
H      24.18700000      14.46800000      37.96500000 
H      24.59400000      16.67200000      36.07000000 
H      26.50300000      14.62300000      37.08400000 
H      27.22700000      17.45300000      36.55400000 
H      26.04500000      17.20800000      37.79100000 
H      28.10700000      15.40600000      35.30800000 
H      26.78900000      14.45000000      34.66300000 
H      26.76200000      16.19400000      34.51500000 
H      28.32200000      17.28900000      38.75000000 
H      27.53900000      15.75500000      39.05600000 
H      28.77000000      15.87700000      37.81500000 
N      24.21300000      15.90500000      31.25800000 
C      24.84600000      16.17200000      29.99900000 
C      26.33700000      16.07700000      30.13600000 
O      26.91200000      16.52400000      31.15500000 
C      24.45300000      17.58900000      29.57800000 
C      24.50100000      17.83800000      28.10900000 
C      25.34100000      18.78500000      27.55800000 
C      23.61600000      17.16100000      27.27900000 
C      25.29700000      19.06100000      26.19900000 
C      23.56600000      17.42600000      25.93200000 
C      24.41000000      18.38400000      25.40100000 
O      24.30400000      18.60900000      24.05000000 
H      23.77400000      16.65800000      31.71700000 
H      24.50800000      15.45500000      29.27300000 
H      23.44200000      17.74400000      29.91600000 
H      25.07900000      18.28900000      30.09800000 
H      26.02400000      19.31600000      28.18300000 
H      22.96500000      16.42600000      27.70100000 
H      25.95100000      19.79500000      25.77500000 
H      22.89600000      16.90400000      25.28800000 
H      24.98400000      19.16300000      23.68300000 
N      27.01000000      15.53800000      29.13800000 
C      28.45200000      15.47900000      29.15000000 
C      28.91900000      15.68200000      27.74500000 
O      28.38500000      15.04900000      26.81400000 
C      28.92000000      14.16200000      29.74100000 
O      28.61900000      14.18200000      31.14700000 
C      30.39000000      13.93000000      29.54800000 
H      26.54200000      15.12500000      28.36400000 
H      28.82300000      16.27200000      29.76800000 
H      28.35700000      13.36300000      29.28700000 
H      28.13600000      14.96300000      31.41500000 
H      30.69700000      13.07100000      30.12500000 
H      30.60400000      13.73200000      28.50800000 
H      30.95800000      14.79100000      29.86800000 
N      29.88600000      16.56300000      27.59300000 
C      30.38200000      16.95500000      26.30000000 
C      31.85600000      16.69400000      26.29000000 
O      32.54900000      17.06700000      27.25800000 
C      30.14600000      18.44600000      26.04000000 
C      30.39800000      18.75500000      24.57300000 
C      28.74700000      18.86200000      26.45200000 
H      30.27900000      17.01200000      28.39900000 
H      29.88300000      16.36800000      25.55200000 
H      30.85200000      18.98800000      26.64100000 
H      30.33700000      19.82000000      24.39700000 
H      31.37200000      18.41200000      24.25500000 
H      29.65500000      18.26300000      23.96100000 
H      28.58800000      19.90600000      26.21300000 
H      28.00500000      18.27800000      25.92600000 
H      28.58900000      18.73200000      27.51000000 
N      32.37700000      16.09200000      25.23500000 
C      33.78100000      15.82300000      25.18900000 
C      34.38500000      16.26600000      23.89100000 
O      33.74600000      16.31600000      22.82600000 
C      34.07300000      14.37200000      25.47400000 
O      33.50100000      13.58500000      24.42900000 
H      31.78400000      15.78000000      24.48800000 
H      34.23600000      16.39900000      25.97300000 
H      35.13800000      14.20900000      25.52400000 
H      33.62200000      14.12200000      26.42100000 
H      33.25500000      12.71000000      24.71400000 
N      33.27400000      18.62000000      29.57500000 
C      32.49500000      19.39200000      30.51500000 
C      31.25600000      18.60000000      30.83700000 
O      30.90500000      17.63800000      30.12900000 
C      32.14600000      20.77500000      29.94500000 
C      31.35000000      20.63100000      28.66900000 
C      31.42900000      21.67700000      30.93200000 
H      32.79800000      17.93100000      29.03300000 
H      33.07200000      19.53000000      31.41600000 
H      33.10000000      21.21700000      29.71200000 
H      31.06700000      21.60500000      28.30400000 
H      31.93100000      20.13100000      27.91300000 
H      30.44300000      20.06700000      28.83900000 
H      31.45500000      22.69000000      30.56700000 
H      30.39300000      21.39300000      31.03400000 
H      31.88700000      21.66600000      31.90800000 
N      30.54200000      18.99700000      31.88400000 
C      29.29500000      18.37100000      32.23700000 
C      28.34500000      19.41800000      32.75500000 
O      28.76100000      20.42700000      33.34600000 
C      29.50000000      17.28700000      33.27600000 
H      30.85400000      19.75400000      32.44600000 
H      28.87800000      17.93500000      31.35100000 
H      28.57500000      16.78500000      33.48400000 
H      30.21000000      16.56800000      32.89300000 
H      29.89100000      17.71400000      34.18800000 
H      33.64580623      18.30530276      18.46856941 
H      24.92716124       7.00727343      15.88247721 
H      25.24390833      11.49460185      15.90532847 
H      28.37347327      12.87407709      16.25486424 
H      26.66137549      22.55913799      19.54142879 
H      23.80056303      23.32306921      21.27992995 
H      22.11096120      20.71650481      17.71112626 
H      21.39838206      19.21259391      20.63775588 
H      18.22363967      15.91308913      18.77591577 
H      16.09725832      15.75987879      21.37028526 
H      13.98815643      11.73352757      18.81987747 
H      11.76234486      11.49217110      21.61094007 
H      13.95626589       5.22744848      25.41270109 
H      15.71568147       6.54849571      28.62993819 
H      17.41635323       8.61595394      29.96333219 
H      21.92733546       9.76566180      34.29574143 
H      24.60686645      15.88633407      38.26734211 
H      24.06384125      15.07042078      34.39491873 
H      23.56758457      15.28803382      31.14489979 
H      35.34620493      16.53938305      23.85430145 
H      33.65293899      19.17226363      28.97382605 
H      27.35966204      19.30715920      32.62529486 
