 526 
 
N               145.2995654491       69.0142934381      114.8034627095
C               145.0708117139       68.3951647862      113.5153728342
C               144.8188095360       69.4538312840      112.4482297453
O               145.2756176120       69.3217933730      111.3160226043
C               143.8760474509       67.4427664249      113.5374936380
C               144.1123188056       66.1478934110      114.3247749781
C               142.8144703094       65.3402203541      114.3458580460
C               145.2317534530       65.3047598389      113.7190017621
H               144.7015697676       68.7475509374      115.5792364994
H               145.9776269947       67.8604421410      113.2061050725
H               143.0272780842       67.9841492162      113.9595625579
H               143.6320277841       67.1887275138      112.5037716452
H               144.3783473540       66.4098070760      115.3530415294
H               142.9351800966       64.4355164643      114.9357717916
H               142.0032796144       65.9203841850      114.7806940833
H               142.5251978768       65.0504497291      113.3376467431
H               145.2600117622       64.3344439141      114.2067894762
H               145.0544912120       65.1504520993      112.6571916025
H               146.2026212835       65.7744313891      113.8480504588
N               148.0130977849       70.8973748578      111.4378098277
C               148.6838211631       69.9449763071      110.5715885549
C               148.0822702030       70.0341445454      109.1645431512
O               148.7909616247       70.1428532171      108.1708896312
C               148.5937190819       68.5319248245      111.1700073870
C               149.5098206090       68.4631523043      112.3991268801
C               148.9583970542       67.4819718930      110.1230440421
C               149.2984610191       67.2208838788      113.2532411407
H               147.5671304530       70.5590270469      112.2869231493
H               149.7389921908       70.2377054016      110.4715923634
H               147.5563984874       68.3761767596      111.4812957061
H               150.5494258468       68.5009507807      112.0680902998
H               149.3267310095       69.3402211981      113.0226402631
H               148.9123246998       66.4874547172      110.5548705966
H               148.2663543514       67.5233022606      109.2863896303
H               149.9613391355       67.6545961234      109.7432934105
H               150.0167077619       67.2136295068      114.0685951823
H               148.2971796898       67.2224351797      113.6767527239
H               149.4353491542       66.3105579897      112.6778911079
N               146.7535603344       69.9819629635      109.1307539585
C               145.9880235484       70.0704941615      107.9043875413
C               146.4428398514       71.2894031057      107.0922144596
O               146.7622944821       71.1676759582      105.9169231796
C               144.4979529332       70.1180654288      108.2500929311
C               143.6222729980       70.1992643504      107.0076995069
O               143.7840492405       71.0522055299      106.1540104123
N               142.5879852245       69.3307563534      106.9728392438
H               146.2292830690       69.8467656271      109.9921808749
H               146.1993151195       69.1922268022      107.2761950193
H               144.2452825465       69.2487243673      108.8567053805
H               144.3227219609       71.0260599060      108.8332787129
H               142.0323611044       69.3232429673      106.1285426336
H               142.5858552317       68.4473185831      107.4662672941
N               146.5238008951       72.4336153219      107.7680250514
C               146.9624659511       73.6579227053      107.1256011383
C               148.3237078432       73.4429943689      106.4648832606
O               148.5619410648       73.8244069048      105.3247077237
C               147.0884771171       74.8176854961      108.1235710866
C               145.8075122536       75.6367569200      108.2048759356
O               145.7244190835       76.7569045987      107.7250606607
N               144.7847457067       75.0382239012      108.8245564787
H               146.2267190269       72.4752424363      108.7350437836
H               146.2480524573       73.9249436190      106.3325408605
H               147.3569280326       74.4320416841      109.1080132508
H               147.8759910700       75.4946075111      107.7894328298
H               143.9143731058       75.5373093221      108.8931136554
H               144.8877715003       74.1481607800      109.2873480136
N               149.2454553753       72.8514478351      107.2293953956
C               150.5720007241       72.6156454446      106.6933799184
C               150.4494135015       71.7802965122      105.4054977560
O               151.1000517045       72.0696587685      104.4066664635
C               151.4800751565       71.9199902706      107.7152356748
C               152.0976704687       72.9267797793      108.6770949299
O               153.1970516820       73.4226786141      108.4679863388
N               151.3587066788       73.2454515404      109.7430304866
H               149.0476298062       72.6299853655      108.1965178974
H               151.0187954512       73.5745449213      106.3939767524
H               150.9038883635       71.1673508617      108.2521342867
H               152.3040393644       71.4367315032      107.1883763348
H               151.7182879461       73.9145562097      110.4056177459
H               150.4115882354       72.9198797983      109.8855495273
N               149.6217433726       70.7430107052      105.4591597339
C               149.4368613646       69.8721723717      104.3151874052
C               148.7921771149       70.5890081259      103.1217484523
O               149.0798755067       70.2711195860      101.9705749261
C               148.6053127795       68.6521743576      104.7141607280
C               149.2992045936       67.7572611455      105.7515958397
C               148.3288218420       66.6826675987      106.2407264518
C               150.5445710968       67.0957806554      105.1699186144
H               149.1234981916       70.5217009889      106.3173023952
H               150.4242314722       69.5547868665      103.9582918191
H               147.6577898862       69.0167059536      105.1132230109
H               148.3983770277       68.0722732986      103.8135231881
H               149.5865331841       68.3710473549      106.6096615989
H               148.7861411486       66.0896492859      107.0283275777
H               147.4225270018       67.1341392419      106.6359068486
H               148.0499086458       66.0152541471      105.4284480349
H               150.9735657514       66.4111301294      105.8958992370
H               150.2844823829       66.5388299205      104.2738671251
H               151.3039159056       67.8287856669      104.9143120432
N               147.9051259173       71.5408483658      103.4050138498
C               147.3047770329       72.3521722259      102.3657722796
C               148.3897078642       73.1517900003      101.6303483392
O               148.4078007333       73.2549901437      100.4090162206
C               146.2726326862       73.3118870148      102.9548858100
C               145.0332172102       72.5876411251      103.4868872578
C               144.1462948069       73.5609882796      104.2423416168
O               144.5596368524       74.2378259833      105.1728594967
N               142.8800248864       73.6463503939      103.8121413580
H               147.6262949136       71.7103898195      104.3653623921
H               146.8369701874       71.6972391104      101.6188134947
H               146.7391246031       73.8747163328      103.7654792150
H               145.9796393952       74.0240481866      102.1807807270
H               144.4815872812       72.1214105144      102.6729812329
H               145.3308952736       71.8201426572      104.2039613590
H               142.5312401366       73.0693924170      103.0678484232
H               142.2430544605       74.2601333972      104.2917824945
N               149.3050040256       73.7067739319      102.4233139452
C               150.4322881749       74.4261593080      101.8620645208
C               151.2336619162       73.4675887350      100.9755913380
O               151.6663859424       73.7903291181       99.8738889970
C               151.3138294184       74.9642965926      102.9889900610
C               152.3268162452       75.9933570961      102.4899034216
C               151.6786776748       77.3726609195      102.3815595718
N               152.6407143582       78.3529823638      101.9221960432
C               152.4492227567       79.2879911728      100.9954367915
N               151.3166198306       79.3934896347      100.3180174309
N               153.4362821579       80.1714898992      100.7803028497
H               149.2029130467       73.6749819706      103.4306323541
H               150.0715213277       75.2416781638      101.2200812788
H               150.6689780758       75.4216314772      103.7422704466
H               151.8172990323       74.1152636675      103.4519025686
H               153.1681052421       76.0511557294      103.1809613257
H               152.7029559540       75.6901464062      101.5119966171
H               150.8414629868       77.3287720105      101.6895493039
H               151.3031624752       77.6759767965      103.3649434234
H               153.5229968787       78.3442698766      102.4191117291
H               150.6332551822       78.6122794973      100.2405915633
H               151.2560886718       80.0698329431       99.5751480248
H               154.2593370268       80.1708608571      101.3570492965
H               153.3212437659       80.9149263566      100.1135504007
N               151.4267158037       72.2531393015      101.4950700897
C               152.1603968465       71.2501483978      100.7499900728
C               151.5064543313       71.0629148282       99.3791500746
O               152.1920493232       71.0347837883       98.3597511276
C               152.2969416248       69.9357085250      101.5300794037
C               152.9524373198       68.8771246886      100.6484577654
C               153.1438960222       70.1475195688      102.7851713983
H               151.1492399817       72.0567592155      102.4506647060
H               153.1670309653       71.6357033292      100.5328959521
H               151.2908680044       69.6094600501      101.8062895189
H               153.0711036542       67.9534861554      101.2060504034
H               152.3549728612       68.6840627220       99.7650044639
H               153.9349364335       69.2143090155      100.3272249247
H               153.2450164369       69.2101125579      103.3255935947
H               154.1410188884       70.4877497172      102.5143977289
H               152.7040581328       70.8826577437      103.4522058808
N               150.1794655016       70.9305300037       99.3528780323
C               149.5021672508       70.8187484616       98.0756462003
C               150.0599305871       71.8426153389       97.0758276473
O               150.3499403877       71.5262248307       95.9291452629
C               147.9984013349       71.0625718515       98.2000496483
C               147.2529658611       69.9262195695       98.8981109530
C               145.7456792111       70.2196089242       98.8751788588
N               144.9471022312       69.0995383940       99.3334814429
C               144.7664704465       67.9736314174       98.6385627985
N               145.2027448312       67.8389874828       97.3942252013
N               144.1057550393       66.9534878040       99.1782699617
H               149.6417433999       70.8733099979      100.2119211854
H               149.6960219838       69.8264888183       97.6421973687
H               147.8457267146       71.9949054057       98.7427356612
H               147.6060419414       71.1900513880       97.1893648193
H               147.4551233081       68.9854385865       98.3851207807
H               147.6012820941       69.8250197056       99.9266087979
H               145.5268356406       71.0708854157       99.5185747559
H               145.4365818654       70.4912703051       97.8629945787
H               144.6697045099       69.0943504760      100.3034191239
H               145.6833262602       68.5782542508       96.9133532825
H               145.0625252037       66.9361304137       96.9441493863
H               143.7302158123       66.9806483030      100.1097598928
H               144.0265448647       66.1103541057       98.6116926471
N               150.0646277943       73.1040604252       97.5161974651
C               150.4563699945       74.2063023058       96.6658380769
C               151.8737174397       74.0235654032       96.1298885885
O               152.1840707206       74.3272797829       94.9769187787
C               150.4475819655       75.5266359785       97.4444673054
C               149.0741641424       75.9560315841       97.9552444442
C               149.3002874074       77.3189388784       98.6581697813
O               149.1373031351       78.3557512903       97.9972881539
O               149.7011100832       77.2659785349       99.8483328302
H               149.8238021530       73.3209036773       98.4747525973
H               149.7786872468       74.2667965554       95.8038286201
H               151.1191527637       75.4290169175       98.3001577320
H               150.8334773585       76.3147496423       96.7917816344
H               148.3739564368       76.0911135530       97.1308545475
H               148.6796245885       75.2386200109       98.6750690767
N               154.8660070263       69.7743701296      111.4409423599
C               153.9024307136       68.7248933494      111.7047120844
C               154.3984993938       67.8678642597      112.8684013733
O               153.6642015348       67.5639465467      113.8062851437
C               153.6479816624       67.8692780690      110.4523590517
C               152.8571270956       68.6948206100      109.4288244548
C               152.9314652991       66.5753458672      110.8358472170
C               152.6474390799       67.9755347020      108.1015231604
H               155.1979698891       69.9065956360      110.4915349057
H               152.9585166476       69.1810036528      112.0436137591
H               154.6242420463       67.6075548970      110.0304100922
H               151.8887805059       68.9594631951      109.8594360488
H               153.4016830186       69.6220768995      109.2437017274
H               152.7046161306       65.9885645407      109.9514769797
H               153.5685572228       65.9680999859      111.4776982963
H               152.0096165884       66.7857700837      111.3727754149
H               152.2125066682       68.6581967760      107.3769552600
H               153.5981436899       67.6129449632      107.7180987290
H               151.9800618210       67.1262859108      108.2128226066
N               150.0112814749       60.7350717405      114.7022556580
C               149.9550340774       61.5144998901      113.4786674168
C               151.2573052896       62.3078884191      113.3850111420
O               151.4980356542       63.2331486910      114.1474806058
C               148.7581379380       62.4806183681      113.4612947215
C               147.4343965859       61.7323418160      113.6568542065
C               148.7767448046       63.2869818004      112.1632885553
C               147.1693531439       60.6396460298      112.6253095850
H               150.0887035996       61.2405085760      115.5817692904
H               149.8764844712       60.8221935594      112.6399318217
H               148.8852801498       63.1712679790      114.3021063185
H               147.4223861933       61.2890201354      114.6558434731
H               146.6243486453       62.4616543558      113.6095032071
H               147.8988345359       63.9253301135      112.1150223182
H               149.6655149465       63.9113065061      112.1202033079
H               148.7829025069       62.6274659059      111.3000608235
H               146.1697452558       60.2392936710      112.7626407873
H               147.2394875119       61.0232306270      111.6118987963
H               147.8677621198       59.8135325432      112.7296131041
N               153.8209747139       58.5697125838      109.8810226602
C               152.5964577804       57.8055578977      109.8055072751
C               151.7617044640       58.2269852070      108.5920962788
O               151.1394703264       57.3995596155      107.9382786942
C               151.7445980491       57.8291861517      111.0776755394
O               151.3256365271       59.1432642270      111.3894399246
C               152.4889988340       57.2101887525      112.2555631784
H               154.0223065316       59.1649004469      110.6751816115
H               152.8742762238       56.7576302097      109.6197632353
H               150.8580752275       57.2169343437      110.8416037629
H               150.7342228418       59.0357971094      112.1673454808
H               151.8013635547       57.0884279984      113.0874513394
H               152.8965732801       56.2451994718      111.9727776617
H               153.3017909474       57.8654788474      112.5561188643
N               151.7576269778       59.5336782898      108.3242063684
C               151.0344643062       60.0499529615      107.1796798526
C               151.6048741489       59.4539851528      105.8907174657
O               150.8861452984       59.0300698629      104.9947812932
C               151.1310928994       61.5731407190      107.1226594991
C               150.3866671847       62.2828157389      108.2611567644
C               150.7757296749       63.7608344895      108.2737145159
C               148.8743400422       62.1374087701      108.1289382245
H               152.2531802097       60.1809521460      108.9224290311
H               149.9909531392       59.7160275987      107.2485189441
H               152.1909866626       61.8402689005      107.1639115199
H               150.7315069489       61.9035147949      106.1621597548
H               150.7064656260       61.8323606697      109.2060984996
H               150.2448011686       64.2852373390      109.0639256480
H               151.8451351577       63.8684329519      108.4488568021
H               150.5304497067       64.2204425248      107.3191397195
H               148.3795426202       62.6486087921      108.9496496979
H               148.5288231920       62.5724131814      107.1947179721
H               148.5767288602       61.0932686574      108.1498363792
N               154.6193148328       61.1594280472      104.3599551116
C               155.1774539501       62.2542369627      103.6053885046
C               156.5534879359       62.7074062564      104.0832329227
O               157.1355751431       63.6308415652      103.5284063058
C               154.2386137821       63.4661124869      103.5978612085
C               152.8657384450       63.1826760245      102.9797868670
C               151.9936631892       64.4222395436      103.1561173503
C               152.9685453958       62.8064485163      101.5043987177
H               154.4531658558       61.2891945894      105.3475728339
H               155.3122798039       61.8786087197      102.5835587797
H               154.1113821039       63.7950114066      104.6321521823
H               154.7397671365       64.2638621017      103.0477491136
H               152.4107397605       62.3454037524      103.5227005252
H               150.9992024463       64.2426889173      102.7599169830
H               151.9029647668       64.6675362798      104.2100614226
H               152.4386792983       65.2674697897      102.6383897358
H               151.9723114015       62.6632834526      101.0942371828
H               153.4724565866       63.5932430830      100.9496057037
H               153.5147809365       61.8743602400      101.3850442310
N               149.6091746133       61.0094380778       97.2580153686
C               150.0625763275       60.6868285753       98.5965773876
C               149.6228779951       61.7608322107       99.5963390428
O               149.2034901869       61.4582840776      100.7104866765
C               151.5775662589       60.4904811049       98.5657592588
C               151.9208158593       59.2247568549       97.7769533352
C               153.3866848976       59.1863314356       97.3505677171
C               153.6892279962       57.8653588930       96.6525682218
N               155.0386559655       57.9133472372       96.0310587443
H               150.3056291334       61.3062601131       96.5848692112
H               149.5669197152       59.7598534421       98.9132635708
H               152.0206275791       61.3684934929       98.0934117568
H               151.9510722481       60.4169730005       99.5864534667
H               151.6854071340       58.3504796934       98.3843728416
H               151.3035882825       59.1897260164       96.8790930205
H               153.5654576490       60.0062103137       96.6536842388
H               154.0269788707       59.3122339345       98.2230468906
H               153.6476364502       57.0378475400       97.3613149148
H               152.9541447558       57.6941506088       95.8661325646
H               155.2631366697       57.0300617416       95.5587931423
H               155.0645293325       58.6869029998       95.3216475060
H               155.7512027335       58.0992664110       96.7477234220
N               149.7474431718       63.0192365975       99.1801968752
C               149.2757357789       64.1305010522       99.9815001151
C               147.7727281497       63.9820801664      100.2360627884
O               147.2932163011       64.1254320038      101.3575924196
C               149.6240607636       65.4649091797       99.3041704657
C               151.1494201207       65.6282191836       99.2243433697
C               148.9910556268       66.6232016682      100.0719554967
C               151.5798490037       66.5844702886       98.1186593057
H               150.0903964895       63.2163759229       98.2462993564
H               149.7567844744       64.0820380826      100.9679166075
H               149.2085433973       65.4286935942       98.2922800777
H               151.5152295646       65.9891610280      100.1858780802
H               151.6092906173       64.6602924780       99.0260856180
H               149.3151769284       67.5742599198       99.6608821696
H               147.9064341609       66.5712842857      100.0214441205
H               149.2857736385       66.5851963642      101.1178052910
H               152.6568652011       66.7277011207       98.1489260734
H               151.3193906355       66.1744346300       97.1462463553
H               151.1018298519       67.5560822994       98.2155752960
N               147.0387705735       63.6707341226       99.1676676251
C               145.6157626328       63.4344720296       99.2914989919
C               145.3597297565       62.4172419755      100.4011576843
O               144.5290178502       62.6202292876      101.2822933512
C               145.0222814635       62.9052732089       97.9917536418
C               145.0220337792       63.9557898912       96.8348644916
O               145.3355326892       63.5493587833       95.7078112240
O               144.6663247859       65.1148992681       97.1354946672
H               147.4501963638       63.6299854481       98.2415089105
H               145.1090902055       64.3667178410       99.5791371990
H               145.5666382047       62.0236529309       97.6558944080
H               143.9792596910       62.6254761174       98.1648801364
N               146.0818148906       61.3010003770      100.3057050909
C               145.9191377413       60.1907936557      101.2238878476
C               146.1506530386       60.6567751155      102.6654999619
O               145.3933793712       60.3253395130      103.5745374557
C               146.8968808928       59.0819473190      100.8549159615
H               146.6781368649       61.1538225273       99.4970559607
H               144.8838962650       59.8247300907      101.1737833384
H               146.7382875841       58.2169734016      101.4915255290
H               146.7360277151       58.7925088416       99.8192812658
H               147.9165325105       59.4410113304      100.9700111761
N               147.2408700547       61.3940283882      102.8496696627
C               147.6239683481       61.9088574429      104.1519935732
C               146.4832755347       62.7232649448      104.7652056125
O               146.1013272031       62.5484207847      105.9179535152
C               148.8601085362       62.7828665093      103.9888396596
H               147.8800479426       61.5701654843      102.0774203934
H               147.8206123822       61.0717354482      104.8356647560
H               149.1353499160       63.2250755245      104.9417027368
H               149.6809100398       62.1747170470      103.6181198810
H               148.6433254827       63.5761410252      103.2777729980
N               145.9863094628       63.6826707244      103.9812902391
C               144.8907866452       64.4951392062      104.4672926438
C               143.6880820189       63.6172824704      104.8000812889
O               143.1074055738       63.7261082195      105.8760341396
C               144.5136601506       65.5963913121      103.4790555243
C               145.3090642647       66.8850706756      103.7321807954
C               145.2197925425       67.8120472526      102.5225468794
C               144.7787433129       67.5949052183      104.9757810758
H               146.2931300379       63.7875541853      103.0200543424
H               145.1975378450       64.9314699196      105.4263988278
H               144.6910287151       65.2192627780      102.4699517542
H               143.4451191349       65.8027927889      103.5827692883
H               146.3577281769       66.6168361801      103.8850176034
H               145.7879062579       68.7205017395      102.7112383978
H               145.6340988097       67.3139037905      101.6492847952
H               144.1773138907       68.0742727756      102.3521186291
H               145.2226140147       68.5830889681      105.0704508090
H               143.6987732453       67.7029293160      104.9031235916
H               144.9886023739       67.0235706950      105.8764949481
N               143.3410612482       62.7225111123      103.8757759870
C               142.2249570586       61.8277480665      104.1086241532
C               142.3302927445       61.2525838440      105.5250466658
O               141.3714400888       61.2649899319      106.2926886204
C               142.2120939413       60.7138156235      103.0717834242
H               143.8063169796       62.6784314677      102.9743423820
H               141.2826070587       62.3951969313      104.0734662128
H               141.3830034146       60.0392115600      103.2651635300
H               142.1002235528       61.1434277858      102.0795415877
H               143.1458520239       60.1601001530      103.1211413161
N               143.5126039280       60.7113707155      105.8246121354
C               143.7890147690       60.1333055399      107.1278661400
C               143.3619891201       61.1227895038      108.2216241182
O               142.5189524014       60.8507329305      109.0685666266
C               145.2758710363       59.8224803790      107.2845152259
C               145.7893430929       58.7182768805      106.3578403924
C               147.3129453338       58.7095543476      106.4084019911
O               147.9364284211       58.9941033706      107.4187999562
N               147.9232727446       58.4117180293      105.2522815300
H               144.2608323219       60.7225332114      105.1390936080
H               143.1806056162       59.2276205794      107.2593957838
H               145.8400700916       60.7316612859      107.0756435811
H               145.4675552066       59.5390580980      108.3199909025
H               145.4164517533       57.7444730451      106.6807427723
H               145.4620680103       58.8969548859      105.3347490427
H               147.3941550362       58.1647906098      104.4351793045
H               148.9370753325       58.4177239787      105.2005149427
N               144.0258121403       62.2806891526      108.2118000163
C               143.7543798855       63.3002987886      109.2054450902
C               142.2488657289       63.4858881026      109.3839277905
O               141.7021943617       63.4659055332      110.4882637858
C               144.4063533702       64.6339697170      108.7972699938
C               143.8901132821       65.7732520819      109.6774517310
C               145.9266606074       64.5195674656      108.8783581360
H               144.6325275336       62.5113636210      107.4341913483
H               144.1477379764       62.9616985929      110.1750786543
H               144.1106180343       64.8275283735      107.7613402865
H               144.5307575743       66.6441803931      109.5703109367
H               142.8749896286       66.0397195041      109.3922001849
H               143.8832194335       65.4641888335      110.7197721478
H               146.3861276925       65.4595801491      108.5864088153
H               146.2322992336       64.2798236534      109.8935697476
H               146.2869486038       63.7415464567      108.2116708293
N               141.6040998879       63.7829766277      108.2604015807
C               140.2361198696       64.2379257398      108.2538077137
C               139.2645581829       63.1757159486      108.7632754113
O               138.3024447208       63.4949939441      109.4586998443
C               139.8742950107       64.7009880736      106.8489146116
C               140.7504905426       65.9259861040      106.3916832209
O               141.0512598994       65.9823207696      105.1949787769
O               141.0510716667       66.7669030466      107.2666196039
H               142.0847373809       63.7276509320      107.3702447697
H               140.1531006005       65.0897233694      108.9466515151
H               140.0240564374       63.8870838481      106.1379909549
H               138.8244419102       64.9992896526      106.8141405987
N               139.5380253882       61.9201326223      108.3977394391
C               138.7145348567       60.8104983960      108.8026560580
C               138.9426237062       60.3588730717      110.2501129084
O               138.3414561171       59.3849668591      110.6875148561
C               138.8502749832       59.5926392627      107.8624593007
O               137.7049089633       58.7808329973      107.9761297904
C               140.1245669300       58.7995736044      108.1462382672
H               140.3346017628       61.7193911994      107.8021043205
H               137.6626546150       61.1346516339      108.7914801874
H               138.8608303887       59.9525872573      106.8258752246
H               137.5951994121       58.5810472837      108.9207012738
H               140.2644862675       58.0457553803      107.3770275040
H               140.9773646618       59.4692327957      108.1703065219
H               140.0403692522       58.3026694570      109.1107383791
N               139.7942666673       61.1019487000      110.9598488416
C               139.9593665334       60.9787518587      112.3892464528
C               139.3239060132       62.1940678080      113.0653188611
O               138.6119618741       62.0801851503      114.0615989056
C               141.4377299987       60.8343432630      112.7479977885
C               142.0554076954       59.5679071773      112.1423706445
C               143.5754399947       59.6634962730      112.2307617417
C               141.5466760314       58.3055888908      112.8344480187
H               140.4137135363       61.7506667302      110.4922705328
H               139.3879897898       60.1021809908      112.7168078505
H               141.9616257216       61.7102468671      112.3599029735
H               141.5332637767       60.8124779125      113.8348132529
H               141.7761305057       59.5243246245      111.0853677508
H               144.0363136803       58.7555614160      111.8513331669
H               143.9217269729       60.4993612983      111.6297987826
H               143.8769127800       59.8130629740      113.2639844192
H               142.0199371230       57.4246721532      112.4080171349
H               141.7597958602       58.3384486281      113.9010709950
H               140.4698076501       58.1915303479      112.7161103477
N               139.5647431524       63.3769529582      112.4917515936
C               138.8855887780       64.5719381312      112.9527379419
C               137.3945083771       64.2605951867      113.1374357354
O               136.7878497023       64.5790180267      114.1556723625
C               139.0448089244       65.7381502185      111.9703924268
C               138.3949572874       67.0023320812      112.5504069660
C               138.0279862652       68.0680533854      111.5111099736
N               139.1735889155       68.8233554171      111.0510558643
C               139.7518195106       68.7972107279      109.8524777802
N               139.2532564778       68.1177875387      108.8203914518
N               140.8401106483       69.5431744219      109.6784241524
H               140.2049249842       63.4441378056      111.7074331059
H               139.2708340005       64.8551294652      113.9430062132
H               140.1075374755       65.8973408525      111.7830982663
H               138.5649873742       65.4527782474      111.0326737239
H               137.4747985897       66.7138348848      113.0599998672
H               139.0565803658       67.4412042294      113.2984704128
H               137.5179715220       67.5944144674      110.6731328209
H               137.3302419295       68.7709084729      111.9724054668
H               139.6301168134       69.4084306521      111.7450470106
H               138.4678231414       67.5074388362      108.9762437012
H               139.8983920784       67.8058712146      108.0848728396
H               141.1621478103       70.1170573055      110.4503824544
H               141.2554211592       69.6347401278      108.7630683216
N               136.8094155439       63.7141331105      112.0699341050
C               135.4207404791       63.3052541650      112.0587391090
C               134.9874598528       62.6949104162      113.3866718741
O               133.9352331306       63.0103733893      113.9322352509
C               135.2366013877       62.2503308962      110.9389938172
O               136.2271006770       61.2565057520      110.9747648684
H               137.3513331207       63.4517152700      111.2492922072
H               134.7693747483       64.1670688918      111.8627820784
H               134.2288047780       61.8288272567      111.0025758919
H               135.3613766281       62.7565113284      109.9765385986
H               135.9887540083       60.5274673404      111.5799430652
N               135.8010257496       61.7482736556      113.8455204771
C               135.4609408323       60.9067680930      114.9648195806
C               135.4609686808       61.7164155948      116.2519434887
O               134.5930304941       61.5647591162      117.1070777113
C               136.4578895476       59.7626513640      115.0621675073
C               136.4880547187       58.8857034938      113.7543055879
O               135.7256645831       59.2260265688      112.8281148806
O               137.2790929475       57.9326080969      113.7720540826
H               136.6497176158       61.5187437760      113.3526148563
H               134.4500783852       60.5017909568      114.8143693439
H               137.4673466520       60.1493923167      115.2181384498
H               136.2168401447       59.1043944869      115.8989973030
H               146.1351254634       68.8288663170      115.0817723308
H               144.2770404392       70.2653580362      112.6671145924
H               148.6046771052       71.5130146695      111.7224526389
H               152.5868417812       73.6460595504       96.7206025673
H               154.5139992798       70.5701297377      111.6708492814
H               155.3427626854       67.5388814550      112.8801124897
H               149.2625082650       60.2416394329      114.7788274408
H               151.9359133580       62.0746288680      112.6885335247
H               154.5258779676       58.0105965546      109.8586470291
H               152.5948300881       59.4013888413      105.7594891665
H               153.8159349544       60.9386896038      104.0195798619
H               156.9898494492       62.2490983895      104.8575342393
H               149.2183380695       60.2866423611       96.8908462688
H               136.1796162406       62.3917115410      116.4178382444
