 474 
 
N                40.2715263417       48.1578547636       22.3389825287
C                41.2593584901       47.8734969989       23.3615781961
C                41.2340303006       48.9985158456       24.4050996674
O                41.2891544732       48.7537141215       25.6080662043
C                42.6438100018       47.6091517137       22.7406294265
O                43.3519197074       48.7445774168       22.3546464188
H                40.5228205819       48.1365584136       21.3590252643
H                40.9659730661       46.9650140591       23.9076058802
H                43.2712616352       47.1026336240       23.4793212607
H                42.4955878296       46.9346570812       21.8815759285
H                42.7815229048       49.3059786968       21.7867049813
N                41.1138252512       50.2310931440       23.9146010539
C                40.9014128000       51.3608746587       24.7989728197
C                39.6944025408       51.0893614672       25.6870303725
O                39.8102424420       51.1580268462       26.9165881554
C                40.7467197520       52.6902497116       24.0428670153
C                40.5441197590       53.8395099283       25.0295443050
C                41.9971206985       52.9422999354       23.2100439833
H                41.0196234977       50.3658332995       22.9163275735
H                41.7600738577       51.4296096948       25.4811759642
H                39.8713541318       52.6124420837       23.3943686091
H                40.5395954317       54.7868662792       24.4961713335
H                39.6013233094       53.7367549861       25.5593388459
H                41.3504728037       53.8560710743       25.7607515631
H                41.9124569420       53.8764407088       22.6621917291
H                42.8526107534       53.0127038794       23.8766182115
H                42.1632713502       52.1283109571       22.5100373992
N                40.4891616546       48.7087178495       28.4509102619
C                41.4099228579       49.2630396012       29.4244804795
C                40.7055435874       50.2649311039       30.3473284350
O                40.8513338954       50.2361029820       31.5630076353
C                42.5764904545       49.9759741128       28.7258708641
O                42.2293465313       51.1872935537       28.1297872531
H                40.7482134310       48.7496055610       27.4676037850
H                41.8253466721       48.4621743146       30.0514260795
H                43.3320483171       50.2133833437       29.4814742599
H                43.0085859228       49.2884988017       27.9803460033
H                41.4280144725       51.0689818469       27.5717065800
N                40.0809453220       50.4269184565       34.2995408789
C                40.5533007235       51.5361902001       35.1010028966
C                39.4161145978       52.0718963577       35.9669163789
O                39.5717348647       52.2528716365       37.1689571550
C                41.1252244483       52.6313349463       34.2026613106
C                42.3109770059       52.1785255377       33.3891389467
C                42.7897421481       52.9958016773       32.3699958874
C                42.9315016158       50.9564909122       33.6018939542
C                43.8494423057       52.5971180105       31.5756492157
C                43.9716302470       50.5457947206       32.7905433872
C                44.4433044442       51.3633911161       31.7805349961
H                40.2663717688       50.4536815802       33.3018706163
H                41.3213375319       51.1890502436       35.8094679121
H                40.3387338458       52.9646503007       33.5209701264
H                41.4083393399       53.4807687995       34.8297656415
H                42.3259728615       53.9577918150       32.2086548580
H                42.6110090456       50.3098778895       34.4028131983
H                44.2027366643       53.2426465549       30.7864300475
H                44.3996585110       49.5681498834       32.9479741593
H                45.2763009023       51.0407040020       31.1737201071
N                59.5778007207       52.3917445679       26.9507692002
C                58.3165943609       52.0363382190       26.3415022340
C                57.7575910837       53.2198753974       25.5593959950
O                57.1549477264       53.0369926653       24.5093633526
C                57.2295582295       51.6329852666       27.3392261929
C                57.6473985328       50.5614401323       28.3471834708
C                56.5599724316       50.3973110394       29.4050728531
C                57.9466167884       49.2249457492       27.6846901335
H                59.6604004108       52.4285712163       27.9569656982
H                58.4843369423       51.2314963921       25.6141953039
H                56.9257339286       52.5360905383       27.8733427459
H                56.3795233993       51.2746098294       26.7540115418
H                58.5636956900       50.8915296549       28.8318840958
H                56.9459344620       49.8747357826       30.2761868135
H                56.1910531757       51.3708594521       29.7201607570
H                55.7316863147       49.8245652390       28.9976552385
H                58.2964774646       48.5236608602       28.4369820043
H                57.0571053737       48.8140769513       27.2142628622
H                58.7205212723       49.3438709590       26.9325928008
N                57.7476076967       53.8891917893       22.0542525208
C                56.4840359363       54.2095844761       21.3941309474
C                56.6164641769       55.4169811179       20.4724388216
O                55.7845013167       55.6204815141       19.5849098049
C                55.3665409066       54.4270422579       22.4402360749
C                54.3673565821       55.5308674646       22.1107886651
C                54.6141559889       53.1234712759       22.6618445046
H                57.7044832398       53.7603436750       23.0593791561
H                56.2168765548       53.3572763983       20.7493914040
H                55.8678532327       54.7227537191       23.3592190609
H                53.6555274248       55.5841085829       22.9304738404
H                54.8723283499       56.4846315202       22.0285471248
H                53.8354975065       55.3260256673       21.1882767066
H                53.9267292944       53.2383697808       23.4932070789
H                54.0499656052       52.8758773666       21.7675586835
H                55.3057938759       52.3199956365       22.8891610681
N                59.2573959267       53.7601059562       17.6940934881
C                58.5026482892       52.7210119246       17.0191821487
C                57.7553252979       53.2945810925       15.8156322799
O                57.6334399999       52.6093067323       14.8021769323
C                57.5989839324       51.9941893675       18.0350139500
C                56.9936937801       50.6425193077       17.6401491982
C                58.1183669013       49.6595255540       17.3649425920
C                56.1738088121       50.1428646117       18.8284396573
H                58.9746512302       53.9454873962       18.6566085850
H                59.1983565475       51.9869525076       16.5947046987
H                58.2450966306       51.7858599947       18.8858221330
H                56.8266363611       52.6754465318       18.3907234520
H                56.3818387554       50.7140085921       16.7459581939
H                57.7561275958       48.6418658500       17.2467315562
H                58.6526153080       49.9440338256       16.4648324564
H                58.8121153201       49.6815440438       18.1977273169
H                55.6402791060       49.2292176103       18.5888215478
H                56.8686859875       49.9456491282       19.6389721414
H                55.4505987662       50.8817494575       19.1592581578
N                52.8013880433       50.0797728117       13.1876799900
C                52.5392341382       49.8363616722       14.5828028335
C                51.5411037513       50.8164945054       15.1674655466
O                51.1577215647       50.6449448689       16.3277446919
C                53.8455557709       49.9725048302       15.3714079460
C                54.2988913719       51.4330115745       15.4551590452
C                53.8418958835       52.1325524484       16.7359193223
C                54.4811384448       53.5102109877       16.8147681988
N                53.9854993054       54.3249384797       17.9581775043
H                53.7300245863       50.4178511120       12.9488678517
H                52.0948964723       48.8379484283       14.7084844225
H                53.6965023999       49.5671384325       16.3713574631
H                54.6005225598       49.3823346256       14.8530791599
H                55.3842760305       51.4644683768       15.3970734782
H                53.9504217167       51.9644274531       14.5733131251
H                52.7595805843       52.2093377600       16.7546810304
H                54.1733421431       51.5284221024       17.5788049769
H                55.5475252452       53.3421088630       16.9146018113
H                54.3104589056       54.0526887251       15.8868392340
H                54.6034142947       55.1363112747       18.1608526854
H                53.0365352348       54.6907660430       17.7877711949
H                53.9456468509       53.7866710333       18.8447101826
N                48.6354135418       51.2538993743       15.7362982015
C                47.6071908308       50.7107958691       16.6006995395
C                48.1834456283       49.9347671737       17.7897928935
O                47.7578356214       50.0940401673       18.9279455116
C                46.6406565258       49.8538295891       15.7809823494
O                47.3661233055       48.8094376612       15.1707930946
H                48.8268124610       50.7715652319       14.8698751649
H                47.0747015012       51.5538338966       17.0457407497
H                45.8638824143       49.4456903547       16.4413347104
H                46.1768431689       50.5058750148       15.0302310029
H                46.7990126403       48.3272916319       14.5578681857
N                49.1888001578       49.1371805611       17.4618282515
C                50.0743773271       48.4685454380       18.3972227564
C                50.4502560995       49.4583637762       19.4960233635
O                50.3712864902       49.1703399110       20.6872186112
C                51.2251284024       47.9228568577       17.5384666201
C                52.3969737205       47.2480753480       18.2447718312
C                53.3402272425       46.6541942046       17.1915403106
C                53.1310089079       48.2446861020       19.1424987286
H                49.4313225625       49.1115666985       16.4835242834
H                49.5539348430       47.6484151750       18.9057191793
H                50.7628804922       47.1892348600       16.8766582480
H                51.6128641959       48.7559239503       16.9563131117
H                52.0012501636       46.4246537042       18.8395995028
H                54.0837235461       46.0002283264       17.6431899056
H                52.7780237471       46.0557189011       16.4792887730
H                53.8703255355       47.4375365651       16.6594143124
H                54.1532366400       47.9277170505       19.3225922883
H                53.1498428667       49.2212750948       18.6695161993
H                52.6445225342       48.3239861352       20.1093243337
N                50.8378311152       50.6657708514       19.0857626836
C                51.2326668409       51.6940504997       20.0183766612
C                50.1572784749       51.9252335368       21.0689915975
O                50.4549972076       52.1570328647       22.2356479582
C                51.4528239274       53.0168945213       19.2650715508
O                52.2788052544       53.8933396084       19.9844952109
H                50.8642154338       50.8904658033       18.0970746750
H                52.1463575510       51.3895434817       20.5528645408
H                51.9534955436       52.7933973686       18.3250563473
H                50.4877216234       53.4712327468       19.0206780821
H                51.8896094304       54.0509707622       20.8544659731
N                48.9141159218       51.9855388679       20.6062385821
C                47.8288790547       52.1731360236       21.5468180931
C                47.9284792433       51.0899289582       22.6071065078
O                47.7964627585       51.3468490428       23.7952446072
C                46.4471066877       52.1989459651       20.8670279837
C                45.8709166910       53.6200111853       20.8936357199
C                45.4827033438       51.1733661427       21.4758357044
C                45.3046665568       53.9958549672       22.2551479442
H                48.7053335054       51.8181603141       19.6313811017
H                48.0142579657       53.1178256424       22.0694641882
H                46.6106399867       51.9190745478       19.8238084926
H                46.6555618911       54.3185409273       20.5956076627
H                45.0713847053       53.6752472430       20.1600356664
H                44.4612267184       51.3920501634       21.1868317350
H                45.7219346774       50.1703616230       21.1336740594
H                45.5107089214       51.1681763181       22.5603422940
H                45.0162658207       55.0409283510       22.2856038565
H                44.4258733307       53.3996557729       22.4565076157
H                46.0271562291       53.8063690967       23.0437462639
N                48.1844500340       49.8588130151       22.1610829011
C                48.2298375350       48.7643668546       23.1085446467
C                49.2506560968       49.0971776479       24.2034446073
O                49.0133500794       48.9190717322       25.3918006711
C                48.5629748931       47.4294089221       22.4116924458
O                49.9227130968       47.1119301005       22.3923755593
H                48.1514458873       49.6595443788       21.1685789817
H                47.2554609215       48.6805734746       23.6084879424
H                48.0670707705       46.6259627963       22.9584484974
H                48.1580249913       47.4635256518       21.3909388095
H                50.3652538902       47.7281081677       21.7789486607
N                50.3997892989       49.5997750914       23.7505149174
C                51.4119192432       50.0709201919       24.6738784510
C                50.7973194485       51.1284984329       25.5900063364
O                50.8674853403       51.0070881834       26.8120178288
C                52.6122717310       50.6447464004       23.9399719367
H                50.5406335582       49.7131384576       22.7540076168
H                51.7066386376       49.2428714829       25.3340170158
H                53.3437681873       50.9922862423       24.6644733133
H                53.0770891322       49.8912443282       23.3115772471
H                52.2838651568       51.4800764627       23.3311169359
N                50.2229196388       52.1830712245       25.0249635588
C                49.6009943928       53.1903299193       25.8582583014
C                48.7935861936       52.5323057057       26.9741090094
O                48.8962360704       52.9231996235       28.1369125249
C                48.7152024636       54.1061725777       25.0162415810
C                49.4793500985       54.8261619879       23.8984198804
C                48.5319588634       55.7841579962       23.1877321089
C                50.6277110961       55.6379461995       24.4763931868
H                50.1009073946       52.2489824575       24.0219014141
H                50.3784706752       53.7691197329       26.3752724509
H                47.9164068897       53.5004098989       24.5883605711
H                48.2739299421       54.8557498794       25.6753209587
H                49.8678177631       54.0937187249       23.1879962133
H                49.0691938419       56.3511236421       22.4315881289
H                47.7054364131       55.2659612435       22.7149984067
H                48.1343035473       56.4678309766       23.9336302162
H                51.1010513286       56.2355785863       23.7027085205
H                50.2140381194       56.3122355852       25.2185834552
H                51.3731789804       55.0013536704       24.9445928338
N                47.9211114350       51.6068790468       26.5899639418
C                47.0655280389       50.9358723391       27.5400565663
C                47.9069218455       50.3280797105       28.6508374035
O                47.6409734552       50.5746758824       29.8242739899
C                46.2511082004       49.8338151571       26.8721539085
C                45.4558759340       50.3120176183       25.6579215630
C                44.6519375489       49.1402241144       25.1167959338
C                44.5557628877       51.4987855681       25.9666350884
H                47.8987932080       51.2808580594       25.6310365237
H                46.4019114477       51.6658287150       28.0250230379
H                46.9384612202       49.0497760179       26.5491790599
H                45.5699051228       49.4116500963       27.6148161305
H                46.1617296713       50.6175989221       24.8838241983
H                44.0761338991       49.4540180909       24.2543383545
H                45.3183518720       48.3334059281       24.8165270502
H                43.9666236342       48.7584871663       25.8706892549
H                44.0043497941       51.7683109323       25.0716732118
H                43.8423989938       51.2667821502       26.7496854550
H                45.1416563627       52.3542604736       26.2893792228
N                48.8803931531       49.5088085699       28.2627591022
C                49.7387263081       48.7981528622       29.1949238543
C                50.4589216940       49.7897461753       30.1138328732
O                50.3206882840       49.7620191925       31.3301182496
C                50.7336573394       47.9573214347       28.4117887734
H                49.0542369970       49.3584605025       27.2720339200
H                49.1273789090       48.1564555077       29.8434021237
H                51.4259888679       47.4640723592       29.0891968171
H                50.1923471682       47.2079843326       27.8397933119
H                51.2938105462       48.5906182703       27.7291159444
N                51.2540593170       50.6417207610       29.4733816496
C                52.0150344587       51.6682535416       30.1493277355
C                51.1455679136       52.2845949112       31.2439658029
O                51.5640832432       52.4497329057       32.3806153454
C                52.5224054804       52.7257797334       29.1506565544
C                53.2315638424       53.8530167691       29.8964269431
C                53.4674095547       52.0840567421       28.1373617404
H                51.1651181568       50.7012976113       28.4674682523
H                52.8761948956       51.2087955150       30.6580705727
H                51.6565148023       53.1306081521       28.6190045469
H                53.6870326858       54.5455887979       29.1928113001
H                52.5341432372       54.4011268814       30.5230408025
H                54.0111508324       53.4443385526       30.5339771172
H                53.8730432473       52.8345793974       27.4626280234
H                54.2898110009       51.5977259635       28.6481570196
H                52.9449660253       51.3417426181       27.5452177098
N                49.9234720429       52.6525128633       30.8386531133
C                48.9615751206       53.2657809110       31.7258464439
C                48.5144362083       52.3051958875       32.8254300494
O                48.5915191925       52.6636713706       34.0006445906
C                47.7534207531       53.8202517927       30.9312406206
O                48.1687247756       54.8000307022       30.0100159876
C                46.7527139700       54.4829719319       31.8704921242
H                49.6269242093       52.5125104738       29.8797570463
H                49.4635107537       54.0958035807       32.2472775984
H                47.2794338075       52.9758152173       30.4096903301
H                48.5223256698       54.3613984444       29.2191421994
H                45.9641984137       54.9543476547       31.2898914951
H                46.3117538105       53.7626981818       32.5510767613
H                47.2686067856       55.2516403977       32.4376342154
N                48.0616296566       51.1023259775       32.4786677266
C                47.6668625914       50.1893858617       33.5341771923
C                48.7708104976       50.2098174118       34.6005353971
O                48.5219634475       50.2440340529       35.8007157119
C                47.4829605053       48.7050306046       33.1370878829
C                46.7539220545       48.0008139975       34.2823058185
C                46.7677039403       48.4463458789       31.8160029004
H                47.9409740555       50.8356272852       31.5074278444
H                46.7413603533       50.5655745755       33.9980319576
H                48.4768034778       48.2607272765       33.0359346482
H                46.5369550588       46.9675284626       34.0245183772
H                47.3588105269       48.0132980466       35.1844842794
H                45.8169681940       48.5090017766       34.4979312891
H                46.7097764193       47.3712170605       31.6591138080
H                45.7628463064       48.8461997890       31.8065913277
H                47.3100178348       48.8905055129       30.9917596232
N                49.9951325500       50.0616839511       34.0902491178
C                51.1787611784       49.8396021273       34.8976023838
C                51.3103392664       51.0175404763       35.8642818306
O                51.3738519925       50.8623655480       37.0796891333
C                52.4275631515       49.6974848140       34.0193244214
C                52.4666041644       48.4925649947       33.1053255200
C                53.6715299435       48.1447500342       32.4986657928
C                51.3370519623       47.7586299583       32.7700515669
C                53.7405596886       47.1044142825       31.5885303419
C                51.3870758555       46.7781217976       31.7952627516
C                52.5931472489       46.4258284052       31.2182918702
H                50.1338358820       50.0610211297       33.0841485129
H                51.0384647416       48.9370123051       35.5095045338
H                52.5109133650       50.5925226159       33.3933909549
H                53.3007749857       49.6791408906       34.6749433048
H                54.5750193044       48.6769909120       32.7568525476
H                50.4007024624       47.9459485583       33.2647593374
H                54.6911314491       46.8403271187       31.1508537398
H                50.4737285731       46.3055728523       31.4682735135
H                52.6326169087       45.6136838298       30.5089294825
N                51.3571871852       52.2156999573       35.2827972916
C                51.5062006762       53.4071323399       36.0875696456
C                50.3986286219       53.5276192764       37.1294227969
O                50.6606441516       53.9108461990       38.2681585852
C                51.5096782957       54.6736184597       35.2330868077
C                52.7183367414       54.7620421794       34.2933779001
C                52.6202583137       56.0301088162       33.4487836034
C                54.0151748398       54.7341930335       35.0979292391
H                51.2742636069       52.3106124418       34.2754491657
H                52.4422964979       53.3328570512       36.6563107371
H                50.5804820246       54.7017068139       34.6625651574
H                51.5164809735       55.5306637246       35.9111621252
H                52.6994824854       53.9046933691       33.6174519769
H                53.4158668507       56.0597097772       32.7080219431
H                51.6664913563       56.0663467482       32.9289338676
H                52.6988685680       56.9153955677       34.0739593163
H                54.8383754803       55.1340031040       34.5133990829
H                53.9163180867       55.3348130641       35.9974023755
H                54.2580794499       53.7167031004       35.3872210393
N                49.1599228640       53.2768876163       36.7113660962
C                48.0473506666       53.3916367382       37.6307327849
C                48.2801081203       52.4495172139       38.8163029085
O                48.1764182340       52.8315436666       39.9791344606
C                46.7100434213       53.1125142367       36.9497317128
C                46.3861242673       54.0791929455       35.8000923279
C                45.0579990687       53.6844853999       35.1577193863
C                46.3226551716       55.5301223388       36.2649348390
H                48.9743868992       52.9323125816       35.7769650024
H                48.0421511522       54.4046607005       38.0554851823
H                46.7228483943       52.0889895292       36.5677351652
H                45.9335879546       53.1739871537       37.7179889672
H                47.1739528088       53.9817703476       35.0497422418
H                44.8125648146       54.3632540527       34.3450799871
H                45.1057628877       52.6718200651       34.7645258378
H                44.2586043355       53.7274036917       35.8940473286
H                46.0348167254       56.1710958492       35.4365215099
H                45.5873683441       55.6408021048       37.0593960914
H                47.2846287017       55.8653542878       36.6410346821
N                48.6860085721       51.2136349289       38.5029337387
C                48.8946433986       50.2740825477       39.5819200548
C                50.0712439613       50.7121841377       40.4470614450
O                50.1311158504       50.4180821011       41.6454949134
C                49.1437586545       48.8487126889       39.1013813876
C                47.9887409852       48.2409563058       38.3005748216
C                48.4041991968       46.8463041522       37.8360350362
C                46.7005321929       48.1717956725       39.1140799535
H                48.6967315859       50.8842611839       37.5429215122
H                48.0111909361       50.3024742686       40.2382744306
H                50.0475204389       48.8516662066       38.4877397912
H                49.3193370231       48.2430746609       39.9949745054
H                47.8102018980       48.8740148691       37.4278548109
H                47.6255830600       46.3954013931       37.2277973954
H                49.3222842321       46.9077714594       37.2578108586
H                48.5753929195       46.2085942062       38.7002632044
H                45.9032475384       47.7280472255       38.5237071271
H                46.8392105916       47.5688869215       40.0101658963
H                46.3699175031       49.1588871441       39.4339576214
N                53.3122483453       40.6969727942       14.7054159718
C                54.1080827788       41.5129408993       15.5986429513
C                53.2426076525       42.2802930946       16.6008562590
O                53.6883116241       42.6091164564       17.6896082582
C                55.0201732233       42.5020394992       14.8792103032
C                56.0356164305       41.8088472556       13.9882308967
S                57.5469799989       42.8205600945       13.6768275643
C                56.8731526142       44.5160797266       13.6860367430
H                53.1504465429       41.0122904175       13.7608471773
H                54.7224409497       40.8214236691       16.1946304144
H                54.4289616107       43.1943508810       14.2806474209
H                55.5479351953       43.0673286993       15.6474781418
H                56.4446881966       40.9214302441       14.4679006763
H                55.6238878803       41.5191694648       13.0211914000
H                57.6254803632       45.1198684862       13.1869306889
H                55.9477537705       44.5610253313       13.1255285992
H                56.7447082142       44.8542540522       14.7099221899
N                52.0042935753       42.5909017451       16.2018019284
C                51.0404757365       43.1116768601       17.1517356163
C                50.8172581794       42.0484590651       18.2319710638
O                50.7593252715       42.3152207391       19.4204324223
C                49.7274275878       43.4349557767       16.4361869641
O                49.3013630162       42.2535316809       15.7940628413
H                51.6595792981       42.2957286327       15.2986572009
H                51.4397440244       44.0024502658       17.6510427044
H                48.9998688716       43.7829491610       17.1772845121
H                49.9041384891       44.2297325787       15.6989780169
H                48.3706921654       42.3221638957       15.5556266852
N                53.6900214559       41.9733583029       20.4890626565
C                53.4892348384       43.1109334671       21.3555284847
C                52.5631444484       42.7384129921       22.4979706412
O                52.8144274963       43.0709628936       23.6488854602
C                52.9593273445       44.3138784024       20.5544624753
C                54.0445352643       45.3901655032       20.5415941173
C                51.6134685431       44.8280929824       21.0665026639
C                54.1589059514       46.1448542022       21.8566082898
H                53.6131474279       42.1329295365       19.4887514912
H                54.4429310060       43.3720661134       21.8314099346
H                52.8150997746       43.9762187844       19.5234333148
H                54.9933211679       44.9141072067       20.2840460895
H                53.8170363044       46.1029094078       19.7672070921
H                51.3639834972       45.7728987561       20.5966401375
H                50.8207012944       44.1252100846       20.8328666359
H                51.6216203987       44.9904251700       22.1394063185
H                54.9551791006       46.8820432640       21.8010141432
H                53.2297581453       46.6623853861       22.0747658844
H                54.3678937607       45.4701242784       22.6817660177
N                53.2283815478       43.1070112186       26.4823761273
C                52.3993895687       43.7362267748       27.4871854638
C                52.1736652067       42.7615700774       28.6393164419
O                52.3722971874       43.0894618315       29.8061552015
C                51.0445570190       44.1834103612       26.9310522625
C                51.1331338947       44.9533128046       25.6096639649
C                49.7472815912       45.4519704004       25.2155978641
C                52.1260141856       46.1078972917       25.6585148956
H                52.8657349004       43.0063766051       25.5434091451
H                52.9439305484       44.5916423364       27.9117413278
H                50.4161004117       43.3053455120       26.7676035321
H                50.5642514215       44.8029912678       27.6915975067
H                51.4654190082       44.2583769112       24.8363609241
H                49.8149025184       45.9799194322       24.2713773986
H                49.0545906412       44.6186684459       25.1158845877
H                49.3509532220       46.1437211573       25.9553539605
H                52.0720910006       46.6678713961       24.7289450719
H                51.8939431063       46.7805650885       26.4756883072
H                53.1399005837       45.7407556194       25.7912896685
H                39.5983421181       47.5634315286       22.3980081062
H                38.8131426256       50.8567794482       25.2755858849
H                40.3620931673       47.8342187872       28.6215121070
H                40.1076891243       50.9667211648       29.9599516787
H                40.4596828416       49.6638296476       34.5898051739
H                38.5292045087       52.2802693517       35.5546407559
H                60.2086595010       51.7997026276       26.7027701270
H                57.8824640496       54.1504444594       25.9035586938
H                58.0758586417       53.1214735049       21.7183061668
H                57.3818763762       56.0505585325       20.5852387551
H                60.1269535482       53.5297149965       17.7221923939
H                57.3722234032       54.2173015008       15.8582935775
H                52.6934653808       49.3159986724       12.7239971640
H                51.2084926654       51.5807844831       14.6149886734
H                48.4127748067       52.0916610450       15.4942499073
H                50.8141780010       51.2483560404       40.0463511961
H                53.7012370798       39.8912684580       14.6078030262
H                50.7119359198       41.0880496885       17.9740543117
H                54.5165908749       41.6408630976       20.6164594145
H                51.7319070353       42.2128612453       22.3167533008
H                53.9887857171       43.5779367023       26.3823027133
H                51.8568029380       41.8316296974       28.4527442241
