 257 
 
N               197.4640000000       64.6430000000      106.4370000000
C               196.1580000000       64.3420000000      107.0380000000
C               196.1860000000       63.3850000000      108.2260000000
O               195.4720000000       62.3850000000      108.2480000000
C               195.2160000000       63.7700000000      105.9490000000
C               194.9750000000       64.4740000000      104.6220000000
C               194.1180000000       63.6260000000      103.7380000000
C               194.3840000000       65.8540000000      104.8250000000
H               197.5950000000       65.4790000000      106.2830000000
H               195.8390000000       65.1860000000      107.3940000000
H               195.5450000000       62.8830000000      105.7360000000
H               194.3470000000       63.6580000000      106.3650000000
H               195.8300000000       64.6000000000      104.1810000000
H               193.9700000000       64.0830000000      102.8950000000
H               194.5610000000       62.7790000000      103.5730000000
H               193.2650000000       63.4650000000      104.1720000000
H               194.2430000000       66.2760000000      103.9630000000
H               193.5360000000       65.7780000000      105.2900000000
H               194.9940000000       66.3930000000      105.3520000000
N               192.8800000000       61.1670000000      108.2690000000
C               193.1360000000       59.7460000000      108.0430000000
C               192.8270000000       58.8880000000      109.2590000000
O               192.2460000000       57.8050000000      109.1200000000
C               194.5720000000       59.5030000000      107.5900000000
C               194.8140000000       60.0120000000      106.1990000000
C               196.2650000000       59.9900000000      105.8170000000
C               196.4980000000       60.9370000000      104.6670000000
N               197.8650000000       60.7370000000      104.1080000000
H               193.5790000000       61.6640000000      108.2060000000
H               192.5300000000       59.4780000000      107.3350000000
H               195.1830000000       59.9390000000      108.2040000000
H               194.7650000000       58.5530000000      107.6250000000
H               194.3100000000       59.4730000000      105.5690000000
H               194.4790000000       60.9190000000      106.1280000000
H               196.8130000000       60.2460000000      106.5750000000
H               196.5300000000       59.0910000000      105.5670000000
H               195.8330000000       60.7880000000      103.9760000000
H               196.3950000000       61.8540000000      104.9670000000
H               197.8800000000       61.0010000000      103.2580000000
H               198.4510000000       61.2160000000      104.5770000000
H               198.0820000000       59.8750000000      104.1550000000
N               189.2170000000       58.2640000000      109.4230000000
C               188.9090000000       57.3390000000      108.3590000000
C               189.2560000000       55.8910000000      108.7110000000
O               188.4640000000       54.9630000000      108.4450000000
C               189.5730000000       57.7960000000      107.0390000000
C               189.3020000000       59.1990000000      106.5540000000
C               190.1850000000       59.5430000000      105.3860000000
C               187.8620000000       59.3900000000      106.2710000000
H               189.7620000000       58.8870000000      109.1900000000
H               187.9470000000       57.3500000000      108.2330000000
H               190.5330000000       57.6980000000      107.1400000000
H               189.2970000000       57.1820000000      106.3400000000
H               189.5280000000       59.8240000000      107.2610000000
H               189.9940000000       60.4470000000      105.0910000000
H               191.1150000000       59.4800000000      105.6540000000
H               190.0160000000       58.9240000000      104.6590000000
H               187.7100000000       60.2970000000      105.9610000000
H               187.5810000000       58.7630000000      105.5860000000
H               187.3500000000       59.2350000000      107.0800000000
N               190.4210000000       55.7380000000      109.3310000000
C               190.8650000000       54.4190000000      109.7670000000
C               189.8450000000       53.8880000000      110.7340000000
O               189.4390000000       52.7540000000      110.6340000000
C               192.2270000000       54.4850000000      110.4510000000
O               193.1490000000       55.1620000000      109.6050000000
C               192.7140000000       53.0980000000      110.7990000000
H               190.9660000000       56.3800000000      109.5080000000
H               190.9530000000       53.8400000000      108.9940000000
H               192.1480000000       54.9810000000      111.2810000000
H               192.9530000000       55.9780000000      109.5730000000
H               193.5800000000       53.1580000000      111.2320000000
H               192.0810000000       52.6740000000      111.3990000000
H               192.7940000000       52.5700000000      109.9890000000
N               186.6620000000       54.4050000000      111.0470000000
C               185.4970000000       53.9780000000      110.3170000000
C               185.7450000000       52.8030000000      109.3750000000
O               184.8080000000       52.2600000000      108.7890000000
C               184.9020000000       55.1460000000      109.5380000000
H               186.9930000000       55.1470000000      110.7630000000
H               184.8700000000       53.6620000000      110.9860000000
H               184.1190000000       54.8450000000      109.0510000000
H               184.6480000000       55.8510000000      110.1540000000
H               185.5600000000       55.4860000000      108.9120000000
N               187.0030000000       52.3770000000      109.2340000000
C               187.3180000000       51.2750000000      108.3480000000
C               187.4370000000       51.6500000000      106.8850000000
O               187.0350000000       50.8610000000      106.0230000000
H               187.6790000000       52.7160000000      109.6430000000
H               188.1530000000       50.8740000000      108.6350000000
H               186.6310000000       50.5960000000      108.4400000000
N               187.8240000000       52.8830000000      106.6300000000
C               188.0200000000       53.3870000000      105.2800000000
C               189.3750000000       52.8780000000      104.7990000000
O               190.4030000000       53.1090000000      105.4590000000
C               188.0290000000       54.9140000000      105.2380000000
C               188.4960000000       55.4220000000      103.8880000000
C               186.6740000000       55.5110000000      105.6040000000
H               187.9840000000       53.4640000000      107.2440000000
H               187.2910000000       53.0810000000      104.7180000000
H               188.6620000000       55.2090000000      105.9110000000
H               188.4920000000       56.3920000000      103.8880000000
H               189.3950000000       55.1020000000      103.7150000000
H               187.8990000000       55.0970000000      103.1960000000
H               186.7250000000       56.4790000000      105.5650000000
H               186.0020000000       55.1970000000      104.9780000000
H               186.4310000000       55.2370000000      106.5020000000
N               189.4120000000       52.1090000000      103.7060000000
C               190.6750000000       51.5800000000      103.1670000000
C               191.2410000000       52.5870000000      102.1700000000
O               192.4600000000       52.8200000000      102.1230000000
C               190.4110000000       50.2640000000      102.4180000000
O               189.7230000000       49.3630000000      103.2650000000
C               191.7400000000       49.5970000000      101.9710000000
H               188.7140000000       51.8800000000      103.2590000000
H               191.2960000000       51.4260000000      103.8960000000
H               189.8790000000       50.4700000000      101.6340000000
H               189.5790000000       48.6450000000      102.8530000000
H               191.5460000000       48.7700000000      101.5020000000
H               192.2210000000       50.1980000000      101.3810000000
H               192.2840000000       49.4050000000      102.7510000000
N               190.3410000000       53.1930000000      101.4160000000
C               190.7400000000       54.1180000000      100.3690000000
C               191.5640000000       55.2810000000      100.8600000000
O               191.3200000000       55.8900000000      101.9050000000
H               189.4920000000       53.0830000000      101.4930000000
H               191.2470000000       53.6340000000       99.6990000000
H               189.9450000000       54.4590000000       99.9310000000
N               192.6440000000       55.5760000000      100.1130000000
C               193.5180000000       56.6890000000      100.4420000000
C               192.6780000000       57.9920000000      100.3380000000
O               191.7890000000       58.0550000000       99.5240000000
C               194.6670000000       56.7480000000       99.4160000000
O               195.2960000000       55.4500000000       99.3170000000
C               195.6880000000       57.7620000000       99.8420000000
H               192.8780000000       55.1360000000       99.4120000000
H               193.8870000000       56.5860000000      101.3330000000
H               194.3050000000       57.0030000000       98.5530000000
H               195.9210000000       55.4830000000       98.7570000000
H               196.4060000000       57.7920000000       99.1910000000
H               195.2710000000       58.6360000000       99.9030000000
H               196.0480000000       57.5150000000      100.7080000000
N               193.0310000000       59.0180000000      101.1240000000
C               192.3140000000       60.2670000000      101.1120000000
C               193.0440000000       61.3970000000      100.4230000000
O               194.2780000000       61.4040000000      100.3260000000
C               191.9660000000       60.6540000000      102.5310000000
H               193.6930000000       58.9950000000      101.6720000000
H               191.5120000000       60.1210000000      100.5870000000
H               191.4830000000       61.4950000000      102.5280000000
H               191.4110000000       59.9640000000      102.9280000000
H               192.7800000000       60.7510000000      103.0490000000
N               192.2620000000       62.3410000000       99.9440000000
C               192.8140000000       63.5460000000       99.3130000000
C               191.9250000000       64.7670000000       99.5610000000
O               190.7250000000       64.6360000000       99.7380000000
C               193.0680000000       63.3470000000       97.8240000000
O               192.1070000000       62.4950000000       97.2310000000
H               191.4030000000       62.3130000000       99.9690000000
H               193.6730000000       63.7130000000       99.7320000000
H               193.0560000000       64.2080000000       97.3770000000
H               193.9540000000       62.9730000000       97.6950000000
H               192.2760000000       62.4090000000       96.4130000000
N               187.1780000000       65.6830000000      101.8420000000
C               188.1600000000       64.6070000000      101.8750000000
C               187.6630000000       63.4940000000      100.9490000000
O               186.7520000000       62.7590000000      101.2890000000
C               188.3330000000       64.0640000000      103.3120000000
C               189.3630000000       62.9620000000      103.2650000000
C               188.7510000000       65.1820000000      104.2190000000
H               186.6190000000       65.6900000000      102.4950000000
H               189.0230000000       64.9380000000      101.5810000000
H               187.5020000000       63.7050000000      103.6600000000
H               189.4920000000       62.6010000000      104.1560000000
H               189.0570000000       62.2570000000      102.6730000000
H               190.2030000000       63.3180000000      102.9360000000
H               188.8600000000       64.8430000000      105.1210000000
H               189.5920000000       65.5530000000      103.9090000000
H               188.0720000000       65.8740000000      104.2140000000
N               188.2340000000       63.4470000000       99.7560000000
C               187.8730000000       62.4630000000       98.7450000000
C               188.5570000000       61.1470000000       99.0420000000
O               189.7380000000       61.0980000000       99.4470000000
C               188.2900000000       62.9700000000       97.3580000000
C               187.9090000000       62.0430000000       96.2040000000
C               188.3590000000       62.6190000000       94.9060000000
C               188.1520000000       61.6620000000       93.7630000000
N               188.6280000000       62.2210000000       92.4800000000
H               188.8500000000       63.9920000000       99.5060000000
H               186.9120000000       62.3290000000       98.7580000000
H               187.8840000000       63.8380000000       97.2080000000
H               189.2510000000       63.1010000000       97.3490000000
H               188.3130000000       61.1710000000       96.3350000000
H               186.9480000000       61.9120000000       96.1910000000
H               187.8730000000       63.4400000000       94.7310000000
H               189.2990000000       62.8530000000       94.9650000000
H               188.6210000000       60.8330000000       93.9470000000
H               187.2090000000       61.4450000000       93.6910000000
H               188.1230000000       61.9110000000       91.8160000000
H               188.5740000000       63.1090000000       92.5040000000
H               189.4740000000       61.9800000000       92.3460000000
N               187.8360000000       60.0570000000       98.8430000000
C               188.3590000000       58.7250000000       99.0990000000
C               187.8130000000       57.8850000000       97.9740000000
O               186.6640000000       57.4020000000       98.0040000000
C               187.8770000000       58.1630000000      100.4280000000
C               188.2230000000       56.6970000000      100.5450000000
C               188.4670000000       58.9440000000      101.5750000000
H               187.0260000000       60.0670000000       98.5540000000
H               189.3280000000       58.7350000000       99.1450000000
H               186.9110000000       58.2480000000      100.4650000000
H               187.9080000000       56.3570000000      101.3970000000
H               187.7980000000       56.2060000000       99.8250000000
H               189.1850000000       56.5860000000      100.4880000000
H               188.1510000000       58.5750000000      102.4150000000
H               189.4350000000       58.8880000000      101.5410000000
H               188.1950000000       59.8730000000      101.5080000000
N               188.6370000000       57.6350000000       96.9650000000
C               188.2130000000       56.8560000000       95.8260000000
C               187.1490000000       57.6470000000       95.0650000000
O               187.4560000000       58.3460000000       94.0910000000
H               189.4500000000       57.9120000000       96.9260000000
H               188.9680000000       56.6650000000       95.2480000000
H               187.8550000000       56.0020000000       96.1160000000
N               183.8020000000       63.4880000000      101.8180000000
C               183.4450000000       63.8420000000      103.1870000000
C               183.5610000000       65.3440000000      103.3850000000
O               184.4730000000       65.9710000000      102.8590000000
C               184.3710000000       63.1640000000      104.1910000000
C               184.4190000000       61.6700000000      104.0550000000
C               185.2890000000       61.0570000000      103.1450000000
C               183.5640000000       60.8540000000      104.8140000000
C               185.3030000000       59.7000000000      102.9960000000
C               183.5910000000       59.4930000000      104.6760000000
C               184.4470000000       58.9130000000      103.7660000000
O               184.4430000000       57.5540000000      103.5960000000
H               184.6400000000       63.5640000000      101.6400000000
H               182.5330000000       63.5460000000      103.3340000000
H               185.2670000000       63.5190000000      104.0840000000
H               184.0820000000       63.3900000000      105.0890000000
H               185.8640000000       61.5810000000      102.6360000000
H               182.9730000000       61.2430000000      105.4170000000
H               185.8800000000       59.3030000000      102.3840000000
H               183.0330000000       58.9610000000      105.1950000000
H               183.8850000000       57.2070000000      104.1200000000
H               198.1193546052       64.3697851251      106.9900497026
H               196.7911186445       63.5675233121      109.0009301043
H               192.2872125517       61.4658362435      107.6612994646
H               193.0934462018       59.1991565992      110.1712433844
H               188.4598966816       58.6608193080      109.7046540467
H               189.4976693035       54.4738528990      111.4662142911
H               186.4479801435       54.5203479518      111.9135392957
H               192.3267105834       65.6825888697       99.5790451871
H               187.6015255449       66.4769152078      101.8600209783
H               186.1922811517       57.6031726540       95.3526946455
H               183.5763114232       62.6310767916      101.6606873136
H               182.8904039171       65.8274174290      103.9476797339
