 301 
 
N                97.2730530984       55.4881025618      203.9670661720
C                96.3281461679       55.0432918396      202.9056401943
C                97.0634091549       55.3104433631      201.5732474526
O                98.0908522635       55.9791174607      201.5929159823
C                95.0347475619       55.8492096070      202.9691860663
H                96.8288282356       56.1229465921      204.6461319362
H                97.7084382916       54.7057213677      204.4719071942
H                98.0239034524       56.0052501401      203.4305821778
H                96.1075206370       53.9777820431      202.9960180912
H                94.3574848736       55.5290350980      202.1827833020
H                94.5336077256       55.6833878589      203.9191464554
H                95.2344276861       56.9120567430      202.8509860235
N                96.4689301355       54.8237282322      200.4911686530
C                97.1081014388       54.8198655479      199.1926143040
C                96.3736871439       55.6898695314      198.1728401867
O                96.4529890929       55.4785114254      196.9689836199
C                97.3116408809       53.3863204527      198.6731663513
C                96.0621553932       52.6702794758      198.1412762695
C                95.0502598606       52.1917898264      199.1665874254
O                94.8578984281       52.7285616254      200.2556866032
N                94.3352455585       51.1332959636      198.7855101519
H                95.7131324296       54.1187209118      200.5755652412
H                98.1014751255       55.2776679501      199.3156448349
H                98.0246839329       53.4479813618      197.8500619383
H                97.7643245455       52.7950469006      199.4698030691
H                95.5337483602       53.3334184822      197.4518395425
H                96.3965882515       51.8058368727      197.5676049690
H                94.4708049480       50.6835427579      197.8967309686
H                93.6178103471       50.7782961495      199.3994159700
N                95.7006091429       56.7341549231      198.6697557577
C                94.9805105135       57.6595233823      197.8081872858
C                95.8821018028       58.0478558922      196.6348960140
O                95.4791069992       58.0728211284      195.4756299194
C                94.5240950658       58.9044356410      198.5947178366
C                93.8998996105       59.9228923811      197.6415533619
C                93.5136910479       58.5225808084      199.6756410778
H                95.6184553497       56.8539464864      199.6693057639
H                94.1005764919       57.1614769047      197.3799231679
H                95.4017892668       59.3601913000      199.0643987891
H                93.5828576578       60.8039790815      198.1930203911
H                94.6061471730       60.2360783539      196.8761127844
H                93.0288788551       59.5002997732      197.1462364038
H                93.1804441674       59.4197792688      200.1900582061
H                92.6440197777       58.0467989412      199.2296359214
H                93.9361423397       57.8492690815      200.4157057963
N                97.1340269790       58.3552378349      196.9801783377
C                98.1719995786       58.7074592268      196.0330320087
C                97.9451757693       57.9762074150      194.7107332465
O                98.0033186569       58.5631381771      193.6324095020
C                99.5953384983       58.3253880941      196.5204450098
C                99.8358225572       58.6668974735      197.9969959652
C               100.6029163618       59.0437976228      195.6208792064
C               101.2500947107       58.3040542006      198.4436460642
H                97.3826684607       58.4083698752      197.9577297999
H                98.1373193791       59.7871184061      195.8329770536
H                99.7241704965       57.2450704560      196.3965139948
H                99.6618737773       59.7312675486      198.1650723547
H                99.1512730329       58.0932976717      198.6257424711
H               101.5949877968       58.6223486191      195.7436329672
H               100.3255235234       58.9427306162      194.5745673234
H               100.6412947373       60.1040062306      195.8619541095
H               101.3327571916       58.3951486985      199.5234485166
H               101.4807662459       57.2784715037      198.1646111651
H               101.9898889774       58.9590003879      197.9941025116
N                97.7885783537       56.6590942099      194.8270785596
C                97.8315474715       55.7353178327      193.7210982634
C                96.6472083752       55.8805216987      192.7616376862
O                96.7895404228       55.6685834782      191.5630774803
C                97.8634766530       54.2984370945      194.2515493458
C                99.1063485795       54.0286694128      195.0992556358
O                99.6835878537       54.8978764809      195.7301878821
N                99.4732990495       52.7414596119      195.1437889468
H                97.6571741618       56.2411880942      195.7423982956
H                98.7362622120       55.9318406397      193.1305366136
H                96.9898311631       54.1457905961      194.8898334080
H                97.8179636177       53.6079933610      193.4102243981
H               100.2978593334       52.4881126534      195.6666944935
H                99.0274041045       52.0389473834      194.5793404279
N                95.4663412810       56.1725780319      193.3185844987
C                94.3101510352       56.3768595368      192.4692183499
C                94.4431780371       57.6943232800      191.7024623596
O                94.1952886328       57.7894278184      190.5089435739
C                92.9854940477       56.2357302819      193.2478096319
O                92.0097276141       55.9247665142      192.2764974421
C                92.6095999552       57.4683551560      194.0650631555
H                95.4330544046       56.5164287945      194.2737790269
H                94.3065264242       55.5884474735      191.7054410015
H                93.1121035227       55.3727726709      193.9240363576
H                91.1398799961       55.9417947609      192.6956963111
H                91.7271468802       57.2541853197      194.6641944954
H                93.4227360506       57.7506058470      194.7268972684
H                92.3835482715       58.3008901770      193.4031344841
N                94.9103020249       58.7308826525      192.4159052909
C                95.2083338997       59.9621399161      191.7149290318
C                96.2442955688       59.6842453034      190.6205276988
O                96.1471325359       60.1630863768      189.4973636319
C                95.7252524082       61.0541383725      192.6487912978
C                95.7530743123       62.3528049591      191.8446195138
O                94.7294663052       62.8825143990      191.4481912224
N                96.9706308957       62.8585524650      191.6068926733
H                95.1438370187       58.6468428477      193.3970660637
H                94.2998733278       60.3183898405      191.2100068360
H                95.0205173800       61.1746874885      193.4727013893
H                96.7081144013       60.7908520496      193.0374959001
H                97.0451176832       63.6806967098      191.0276491656
H                97.8162705216       62.3875819741      191.8792293433
N                97.2534076223       58.9001989702      191.0041777017
C                98.3086466453       58.5449384759      190.0836925081
C                97.7167702652       57.9111816561      188.8244609370
O                98.0549164892       58.2993012273      187.7153486000
C                99.3266975688       57.6068417432      190.7373884503
O               100.4433144603       57.5336502629      189.8894301943
H                97.3861497067       58.6545672206      191.9858856302
H                98.8463104086       59.4433092243      189.7479115494
H                99.6007589441       58.0267694256      191.7152559746
H                98.8690851024       56.6185430333      190.8771753585
H               101.1287894255       56.9893694834      190.3033115646
N                96.8203611494       56.9442993492      189.0133491042
C                96.1778469258       56.2906540014      187.8823546531
C                95.7147434816       57.3571862149      186.8915364887
O                96.0277587588       57.3321443909      185.7068520513
C                95.0451535913       55.4081680595      188.4137981377
C                94.2351937605       54.6322852225      187.3632005606
C                93.2216279946       55.5158655600      186.6383567043
C                95.1303353493       53.9147748122      186.3548722867
H                96.6389021107       56.5659887927      189.9380136507
H                96.9210441537       55.6817465462      187.3512182451
H                95.5110174391       54.6908726623      189.0936848049
H                94.3660860034       56.0335068443      188.9965910941
H                93.6697497739       53.8751030955      187.9177808620
H                92.5607772974       54.9014669205      186.0315436010
H                92.6176035526       56.0732169420      187.3502453479
H                93.7200934001       56.2194024874      185.9773203048
H                94.5337722693       53.2534617739      185.7317479628
H                95.6215731503       54.6332049350      185.7025561887
H                95.8865621399       53.3194996722      186.8604489308
N                94.9423620127       58.3230634311      187.4056229481
C                94.4930651667       59.4111539848      186.5630759058
C                95.6843160837       60.0782384662      185.8659126066
O                95.7154244156       60.2651246664      184.6509826453
C                93.7176620459       60.4399945033      187.3888108083
O                93.3565590979       61.5029382689      186.5382575406
H                94.7084317387       58.3284837683      188.3894764600
H                93.8454967627       59.0257578468      185.7633461144
H                92.8284985036       59.9513043757      187.8074526961
H                94.3532618807       60.7937172607      188.2097166438
H                92.8055589857       62.1231602285      187.0296717238
N                96.6801978878       60.4450223846      186.6652851820
C                97.8412625015       61.1082488555      186.1179625511
C                98.5683198879       60.2633724989      185.0745328358
O                99.2752002154       60.8171626755      184.2287642297
C                98.8305044353       61.5219438242      187.2054866086
C                98.2997565285       62.6002582806      188.1610279194
C                99.4322633354       63.0136363010      189.1007728607
C                97.7806751191       63.8166333979      187.3952794645
H                96.6278592917       60.3039337125      187.6686175166
H                97.5004347799       62.0009504072      185.5777037589
H                99.1133389072       60.6265863767      187.7610337531
H                99.7196204837       61.9062632196      186.7011745617
H                97.4774210145       62.1830059577      188.7510185944
H                99.0980991480       63.7930317946      189.7794030578
H                99.7868100628       62.1650828791      189.6801812029
H               100.2653735257       63.4054997575      188.5235108410
H                97.6644645893       64.6737663040      188.0530777360
H                98.4822309313       64.0986411523      186.6129879432
H                96.8115807335       63.6126390171      186.9460257898
N                98.4182090893       58.9470376199      185.1105732669
C                99.0465800308       58.1174210817      184.1112170787
C                98.3890841730       58.3268177740      182.7498501384
O                99.0510760493       58.2648299782      181.7168499665
C                99.0178392264       56.6428604815      184.5071343911
C                99.8641443329       56.3287818747      185.7492993541
C                99.7293034107       54.8433669467      186.0787790289
C               101.3351818316       56.6888119680      185.5485533353
H                97.9037455521       58.5012515090      185.8599728533
H               100.0843580631       58.4511908773      183.9852332517
H                97.9775836392       56.3710721306      184.6944120947
H                99.3819396507       56.0581524194      183.6601749867
H                99.4786383645       56.9146738595      186.5879693468
H               100.2438849813       54.6146445885      187.0077561030
H                98.6829909228       54.5666601135      186.1837348045
H               100.1621083461       54.2406008114      185.2840013398
H               101.9255837606       56.3035246320      186.3749132062
H               101.7112144424       56.2583837652      184.6228359387
H               101.4677246262       57.7672701125      185.5214810202
N                97.0753293807       58.5745521179      182.7471532439
C                96.4394510075       58.9561078173      181.5044608207
C                96.9643454424       60.3286085468      181.0668950784
O                97.3008681272       60.5349582772      179.9041521579
C                94.9017115205       58.8359311448      181.5398850555
O                94.5354879744       58.3471571368      180.2647431564
C                94.1789841561       60.1344317108      181.8788598398
H                96.5694872568       58.7020368841      183.6164033921
H                96.7674083935       58.2517728471      180.7274426228
H                94.6583766024       58.0771397309      182.3025965891
H                93.5792675454       58.4289510328      180.1646722347
H                93.1034443418       59.9697108677      181.8777432688
H                94.4689755421       60.4724580211      182.8676526173
H                94.4149327644       60.9036841709      181.1473654676
N                97.1130466912       61.2432318608      182.0274716637
C                97.7673358865       62.5037995535      181.7195562275
C                99.1169799320       62.2349120091      181.0522842260
O                99.5125234246       62.9326670698      180.1244235672
C                97.9945213985       63.3572961792      182.9665523653
C                96.7106515391       64.0565928931      183.4373520528
C                96.4787503705       65.2847934813      182.5674902258
O                96.1578199892       65.2073033096      181.3927281884
N                96.7094399798       66.4535238539      183.1870845372
H                96.7661507929       61.0679025713      182.9638895069
H                97.1630910970       63.0734407970      180.9997931551
H                98.4076577176       62.7199021529      183.7478029805
H                98.7447105103       64.1125760559      182.7217329600
H                95.8605500694       63.3802971480      183.3404822889
H                96.8100774287       64.3544348554      184.4797963240
H                96.9594913836       66.4873885201      184.1599261820
H                96.6572981356       67.3331746399      182.6916528786
N                99.8261329827       61.2156918386      181.5453892991
C               101.1485894804       60.9442817737      181.0240211774
C               101.1246979871       60.3170875797      179.6268510600
O               102.1055962137       60.4037710497      178.9006609789
C               101.9761641583       60.0967188013      181.9842438153
C               102.5980022867       60.9624078412      183.0770918790
O               102.7491500476       62.1691430596      182.9543144846
N               103.0126069415       60.2914179424      184.1557428821
H                99.5800031831       60.8359884230      182.4581733589
H               101.6610882609       61.9096640198      180.9010954548
H               101.3563005479       59.3026870516      182.3989462164
H               102.7946975150       59.6409780203      181.4216028141
H               103.4616019116       60.7946643528      184.9040421835
H               102.9138806674       59.2929156043      184.2288567442
N               100.0105975873       59.6719305045      179.2730133590
C                99.8046382933       59.2578225958      177.8983876657
C                99.7141726540       60.5136411628      177.0186658417
O               100.3740504906       60.6278385115      175.9901271173
C                98.5585876034       58.3828687134      177.7493702400
C                98.8605716778       56.9192021636      178.0602915379
O                98.8330432796       56.0613900812      177.1904887855
N                99.1844908274       56.6448093818      179.3293472142
H                99.2165972953       59.6448636788      179.8989017720
H               100.6925080165       58.7085183467      177.5601806510
H                97.7632328660       58.7608035310      178.3932738516
H                98.2157817630       58.4211283655      176.7147744961
H                99.3959531925       55.6876150698      179.5604074389
H                99.1793122988       57.3323426873      180.0723474993
N                98.9369321086       61.4908222973      177.4821327885
C                98.9179858214       62.7739003556      176.8039190283
C               100.3366905129       63.3453609476      176.7531524024
O               100.7691057120       63.8881900888      175.7398670270
C                97.9626467407       63.7607233456      177.4740905088
C                96.4949993593       63.6304536865      177.0395836198
C                96.2948681896       64.1105271222      175.6025329449
C                95.9534108803       62.2121687158      177.2031907534
H                98.3593523033       61.3626978461      178.3039314240
H                98.6260032920       62.6200413686      175.7571362634
H                98.0454872817       63.6378154715      178.5540326812
H                98.2979848791       64.7714919964      177.2374571687
H                95.9253290614       64.2934394933      177.6996003425
H                95.2361325622       64.1301165788      175.3572302860
H                96.6938740279       65.1137137958      175.4694477615
H                96.7892723707       63.4489741447      174.8949466533
H                94.8852183746       62.2013795980      177.0015503638
H                96.4318808273       61.5285352760      176.5062906072
H                96.1121359451       61.8463114310      178.2139926039
N                92.8189575021       68.5128240141      189.9571056401
C                92.7676101691       67.3565832778      190.8440880286
C                93.8319060613       67.4320504160      191.9300356441
O                93.5723818443       67.1009380402      193.0838387706
C                92.9448128963       66.1317556983      189.9345537465
C                93.5312506278       66.7159974339      188.6515071236
C                92.8707355973       68.0881647289      188.5724757535
H                91.8029016768       67.3356770388      191.3638680677
H                93.5803249047       65.3768378502      190.3940458184
H                91.9704704687       65.6866292141      189.7366165834
H                94.6104536717       66.8397472081      188.7339296568
H                93.3089632249       66.1095557048      187.7776836522
H                93.4390463855       68.7830792108      187.9651827557
H                91.8502711769       68.0029795985      188.1841224178
N                92.3564905158       66.8553238074      195.7939855044
C                92.7135534179       65.7969225511      196.7133199772
C                92.6812599231       66.2634187554      198.1695482708
O                92.2867805289       65.5300443431      199.0659990284
C                94.1264000454       65.2820909223      196.4298905880
C                94.2968465128       64.6022389079      195.0660858781
C                95.7813959854       64.3140980171      194.8526299643
C                93.4786831100       63.3206127630      194.9397517648
H                92.8798733869       66.9345737424      194.9305118461
H                91.9836582579       64.9793675095      196.6387756866
H                94.8091090971       66.1339128294      196.4835540015
H                94.3930925536       64.5793657628      197.2223365347
H                93.9734545712       65.2933445295      194.2844291947
H                95.9383791544       63.8856211182      193.8675214247
H                96.3521265395       65.2360136992      194.9351322273
H                96.1444941367       63.6145485807      195.6018911702
H                93.5826747712       62.9223260128      193.9333769697
H                93.8158268641       62.5768390423      195.6588096300
H                92.4224117124       63.5078065012      195.1116894010
H               100.9308037922       63.2805969426      177.5549223414
H                92.0332419109       68.9506249766      189.9884317778
H                94.7521369909       67.7534953961      191.7067686269
H                91.4995833820       66.7544982698      195.5379691474
H                92.9867740479       67.1857822323      198.4059943242
