 318 
 
N               181.7303411661       67.3235039089       91.1647813068
C               183.1021463092       67.4109830189       90.7176598419
C               183.9279341509       68.0268610331       91.8443215111
O               183.3916947682       68.5237051498       92.8290598399
C               183.1771838675       68.3027097471       89.4592896544
O               182.8365954178       69.6358173669       89.7389798780
H               181.4854362504       67.9634618045       91.9113462116
H               183.4788580769       66.4093778412       90.4822083033
H               184.1929991895       68.3128543366       89.0585046067
H               182.4957564495       67.8770490411       88.7106230730
H               182.0527624853       69.6411545741       90.3175569899
N               185.2456525349       68.0576069994       91.6354199793
C               186.1637629771       68.4610656201       92.6726151649
C               187.5294386999       68.7420304901       92.0481084098
O               187.8868523931       68.2284373343       90.9990298061
C               186.2983461437       67.3558777582       93.7310003975
C               186.8156554477       66.0615637859       93.0920267797
O               188.0087170394       65.7418540273       93.3379721164
O               186.0472467846       65.3803241773       92.3932040742
H               185.6590300812       67.5260381810       90.8813992192
H               185.7742749986       69.3700044179       93.1440909768
H               186.9819193080       67.6720876638       94.5130292351
H               185.3136499566       67.1651078336       94.1622490546
N               188.2623411371       69.5942927066       92.7732633049
C               189.5601033875       70.0990991767       92.3811081112
C               190.5380926662       69.9074949461       93.5381605578
O               190.2415822684       70.2335948734       94.6800180915
C               189.4491550158       71.6144612945       92.0325873209
O               188.8986511614       72.3602011339       93.0841195852
C               188.6512173408       71.7866440922       90.7387527199
H               187.8640086939       69.9886770585       93.6203573686
H               189.8766133323       69.5421958972       91.4964836859
H               190.4646797866       72.0063943278       91.9004729988
H               188.0650553020       71.9508389669       93.3846936641
H               188.5892833414       72.8415865890       90.4896263225
H               189.1411728625       71.2622575534       89.9235829041
H               187.6491026774       71.3802930919       90.8572929001
N               191.7112935598       69.3473940860       93.2334456690
C               192.7397873585       69.1635966367       94.2478910142
C               193.0069023196       70.5182833104       94.9266884890
O               193.2353056010       71.5214152985       94.2671784744
C               194.0178736296       68.6426979697       93.6062864979
H               191.9658109377       69.1664807064       92.2744530039
H               192.3715020254       68.4574715534       95.0007805407
H               194.7546182959       68.4335623846       94.3767923279
H               193.8173290316       67.7260050304       93.0578819745
H               194.4238531635       69.3913511791       92.9296336741
N               192.9934078419       70.4825363316       96.2631897730
C               193.1695111463       71.6722036305       97.0758351484
C               194.3576752736       71.4286221140       98.0123179656
O               194.2430716272       70.8307637920       99.0766297509
C               191.9042444325       71.9696251957       97.8737329964
H               192.7564625700       69.6236676087       96.7581345383
H               193.3950440868       72.4903858149       96.3844064552
H               192.0130614984       72.9090664427       98.4071409781
H               191.0560733335       72.0245182097       97.1979970319
H               191.7394417173       71.1746776580       98.5968993584
N               195.5244408053       71.8915366656       97.5573165953
C               196.8013835724       71.7051104466       98.2141408888
C               196.9917693991       72.7096107707       99.3720810746
O               197.8815331209       73.5451040375       99.3945781362
C               197.9171727995       71.8407322833       97.1620626899
O               197.5669703946       72.9240947098       96.3216223645
C               198.0790026111       70.5494253862       96.3609245544
H               195.5856018676       72.4321229223       96.7033698861
H               196.8260407236       70.7042556806       98.6630196086
H               198.8466461934       72.0695707829       97.7027335832
H               198.2921856035       73.1032769842       95.7169622743
H               198.8571403469       70.6696045928       95.6114437447
H               198.3569734606       69.7325481446       97.0196190410
H               197.1450233692       70.3053945522       95.8607378700
N               196.0808664812       72.5663889580      100.3384566251
C               196.1742809868       73.3106924396      101.5806595357
C               197.6063294080       73.1449574413      102.1096540898
O               198.1628724723       72.0554992318      102.1151664690
C               195.1642795385       72.7767620213      102.6093301831
C               195.2627821445       73.5675255945      103.9132243534
C               193.7376175027       72.8541748646      102.0676897287
H               195.4220369182       71.7962648490      100.2767623414
H               195.9828542009       74.3716795186      101.3767855448
H               195.4284550486       71.7313359234      102.8063461616
H               194.6423273885       73.1037807628      104.6756030804
H               196.2814430163       73.5971989805      104.2919948300
H               194.9159657224       74.5883960915      103.7697052749
H               193.0454741949       72.5243786365      102.8375328751
H               193.4938183133       73.8815981336      101.8100723751
H               193.6000146110       72.2279292674      101.1898441421
N               197.3673644928       65.0285648846      106.6220230666
C               195.9852295190       64.6842714915      106.9033418941
C               195.8148233967       63.8027950956      108.1345259699
O               194.7606988137       63.2080499975      108.3319876122
C               195.2707577289       64.0068571024      105.7201444490
C               195.3714988512       64.7704352588      104.3987815916
C               194.4860797603       64.0898814328      103.3547378984
C               194.9404358983       66.2234643740      104.5613079707
H               197.5619506195       66.0213796601      106.5585920500
H               195.4767897641       65.6257475123      107.1388735483
H               195.6903545634       63.0104491752      105.5983186453
H               194.2215553245       63.9103730614      106.0011273529
H               196.4070779885       64.7551460409      104.0473514230
H               194.5450114873       64.6289097191      102.4140440172
H               194.7952083736       63.0666173216      103.1653300355
H               193.4484741861       64.0871924434      103.6804193340
H               194.9822410960       66.7226562872      103.6002830483
H               193.9220104271       66.2730213079      104.9381677739
H               195.5910996440       66.7714877677      105.2374549858
N               192.5281158539       62.4818311590       99.9792928855
C               193.0717300962       63.7376567757       99.5094154085
C               192.1342130523       64.8826518789       99.9286945745
O               191.0785176295       64.6465806900      100.4996644216
C               193.2374975152       63.7418696880       97.9791509224
O               191.9680423842       63.9202984934       97.3897533645
H               191.5537579559       62.2857860563       99.7685861609
H               194.0546124393       63.8512288012       99.9805558984
H               193.9129492141       64.5551158640       97.6837330593
H               193.6804232252       62.7844855642       97.6765180827
H               192.0675447079       63.9212566646       96.4312307318
N               192.5585896889       66.1241759342       99.6613116743
C               191.7443394691       67.2950873803       99.9184228385
C               191.3647198734       67.9481476251       98.5944973662
O               192.1979900071       68.1185823081       97.7059236014
C               192.4800698635       68.3563481683      100.7636880632
C               191.4829127932       69.4084845920      101.2402030497
C               193.1703530282       67.7023651631      101.9526246685
H               193.3964422067       66.2795732837       99.1212973004
H               190.8500562825       66.9508524324      100.4448988530
H               193.2342533787       68.8415752221      100.1344237735
H               191.9987219503       70.1619888161      101.8277065869
H               190.9990525879       69.8985139312      100.3995841274
H               190.7140621834       68.9484038390      101.8565743267
H               193.6300196859       68.4652951562      102.5744048169
H               192.4516466909       67.1441062623      102.5482314696
H               193.9412606042       67.0147240210      101.6163766335
N               190.1009855248       68.3610575721       98.5242403021
C               189.5482568194       68.9693637431       97.3419983651
C               188.5758703398       70.0879591005       97.7059758387
O               187.9660405622       70.1196194505       98.7662828644
C               188.8094136998       67.9316069990       96.4635941853
C               189.7684691806       66.8543118644       95.9676380259
C               187.6334887582       67.3034525018       97.2053469355
H               189.4482304340       68.1280166640       99.2651481880
H               190.3749149742       69.3825968803       96.7579368051
H               188.4424102237       68.4874862275       95.5944709382
H               189.2883730433       66.2779447200       95.1819123575
H               190.6636384539       67.3084884529       95.5535581548
H               190.0606304589       66.1882296346       96.7761566403
H               187.1485416841       66.5588358440       96.5794955264
H               187.9737819938       66.8199989514       98.1183032173
H               186.8896648004       68.0531918199       97.4648028149
N               188.4455340387       71.0093310797       96.7461983271
C               187.4435057661       72.0588253431       96.7136544003
C               186.3896725754       71.5688533315       95.7178289299
O               186.6910566179       71.2257249905       94.5715429671
C               188.1373449833       73.3727064350       96.3317947764
C               187.2569843606       74.6149489483       96.4609081356
C               186.2222479500       74.7927680051       95.3523029741
C               186.8447174771       75.0729367898       93.9909166973
N               185.7853233088       75.1714642915       92.9599439067
H               188.9780310394       70.8908139903       95.8922107693
H               186.9944776584       72.1312255625       97.7083585720
H               188.9793293752       73.4796860777       97.0182771293
H               188.5419145092       73.2788708510       95.3241451838
H               186.7253749474       74.5799333979       97.4130503791
H               187.9057687579       75.4910505897       96.4742517701
H               185.5948946003       73.9056922822       95.2856994773
H               185.5769167961       75.6255675819       95.6337638194
H               187.3906015089       76.0162116072       94.0130738231
H               187.5312061775       74.2709216674       93.7148613644
H               186.2000886764       75.1759764836       92.0254488639
H               185.1192759674       74.3885055485       93.0288435896
H               185.2214429233       76.0902499476       93.0399761345
N               185.1576622857       71.4427293720       96.2056547694
C               184.0740380591       70.8486529852       95.4487520966
C               183.5054271182       71.8501981959       94.4328165515
O               183.6431827599       73.0578492111       94.5847275601
C               182.9461033732       70.4270414710       96.3936018259
C               183.3842214538       69.3942485723       97.4264490960
S               184.0783510629       67.8644434945       96.6994268363
C               182.6089070869       67.2447600217       95.8359328343
H               184.9584899602       71.7824051380       97.1397150235
H               184.4604194748       69.9706230557       94.9178892141
H               182.5942203874       71.3159890111       96.9225793381
H               182.1259512256       70.0288299418       95.7941750777
H               184.1744499379       69.7854513767       98.0660299456
H               182.5379004488       69.0922062153       98.0424587296
H               182.7727234357       66.1852792786       95.6649370736
H               181.7354103939       67.3908812533       96.4627979817
H               182.5056993953       67.7547257687       94.8823986422
N               182.8051843829       71.3105755360       93.4341858484
C               182.0290115077       72.1046472032       92.5051445607
C               180.8158793149       71.2840443713       92.0551609615
O               180.9194604949       70.0850652002       91.8112832104
C               182.8240586116       72.4913317474       91.2451845306
O               183.8305621932       73.4225320304       91.5765924085
H               182.8364070775       70.3093560261       93.2536618780
H               181.7113431850       73.0183784565       93.0179597705
H               183.2627696476       71.5875305989       90.8055078493
H               182.1184075351       72.9318258234       90.5291049264
H               184.2286704085       73.7246782959       90.7507295803
N               185.7460421229       72.5474526726      101.3846172964
C               186.6572190151       71.4312189891      101.3139427186
C               185.9369786095       70.1197657732      101.6179115705
O               184.9834706222       70.0367825764      102.3867793309
C               187.7909839494       71.5859773684      102.3321576080
C               188.6031424890       72.8771383461      102.1707813576
C               189.6366985248       72.9537319236      103.2931962844
C               189.2952524306       72.9471910918      100.8125839995
H               185.5506887410       72.9000608038      102.3095158508
H               187.0491657831       71.3782966520      100.2958710647
H               187.3541004648       71.5583650709      103.3349571164
H               188.4619517158       70.7301781902      102.2314416111
H               187.9262864852       73.7315972203      102.2658984763
H               190.1795655605       73.8953156586      103.2601061039
H               189.1583797902       72.8636663465      104.2666719614
H               190.3549660796       72.1424980769      103.1963298060
H               189.9203135724       73.8344502855      100.7631038147
H               189.9266226385       72.0741138141      100.6683292075
H               188.5692298035       72.9879813080      100.0063562490
N               186.4707119942       69.0712901628      100.9899693491
C               186.1065141686       67.7115231836      101.2783822178
C               187.3794586269       66.8771050551      101.2931697425
O               188.3431696427       67.1523897319      100.5862592305
C               185.1462587109       67.1267908785      100.2368508677
H               187.2117668365       69.2032956038      100.3108428401
H               185.6223804734       67.6865512159      102.2580835356
H               184.9208009026       66.0957207264      100.4961220201
H               184.2228321163       67.6994048590      100.2355169931
H               185.5842757511       67.1614590077       99.2427797838
N               187.3430307794       65.8508895707      102.1433354852
C               188.2930375456       64.7632098172      102.0408149462
C               187.6998789067       63.7814563325      101.0261566045
O               186.5458009496       63.3655987591      101.1304986005
C               188.5806124193       64.1199699502      103.4000849029
C               189.4645958517       62.8944500685      103.1924530604
C               189.2865100894       65.1309895258      104.2984924017
H               186.4679375798       65.6730988059      102.6297011473
H               189.2199825454       65.1727899973      101.6330207804
H               187.6299187173       63.8186820547      103.8529354624
H               189.7726831721       62.4873948597      104.1518499105
H               188.9422867345       62.1183245393      102.6372948232
H               190.3471301933       63.1827779324      102.6252800972
H               189.4002022014       64.7305455747      105.3008809692
H               190.2714343601       65.3492819815      103.8944661893
H               188.7209993174       66.0559596191      104.3508553251
N               188.4977601941       63.5209821899       99.9950648540
C               188.1388458350       62.6539478931       98.8928173720
C               188.7739307121       61.2845619410       99.1357168871
O               189.9617461631       61.1832767581       99.4142376233
C               188.6582153571       63.2345401002       97.5783304725
C               188.1406051658       62.4517507648       96.3745231027
C               188.6741656788       63.0573309666       95.0800511714
C               187.9666640275       62.4999508021       93.8521363696
N               188.3904830211       63.2634345175       92.6533154945
H               189.4645782345       63.8376279089      100.0329418095
H               187.0509480656       62.5573415942       98.8651645169
H               188.3206207699       64.2691312147       97.5026976865
H               189.7501116675       63.2289522307       97.5962880735
H               188.4331283319       61.4026263763       96.4384160945
H               187.0482399780       62.4694700623       96.3723015086
H               188.5183809266       64.1361784365       95.1087096657
H               189.7449770254       62.8663216045       95.0112860955
H               188.1709836742       61.4349995036       93.7356756212
H               186.8874293549       62.6066985820       93.9692965038
H               187.8010139900       63.0353854969       91.8517485939
H               188.2683776327       64.3600678214       92.8803500311
H               189.3705851661       63.0753035755       92.4370899374
N               183.3018229467       61.5624975585       99.1459288736
C               183.6498285506       62.8576190086       99.6872071294
C               183.0174542875       63.0213710766      101.0717695097
O               181.8714792781       62.6413352228      101.2871632413
C               183.0805694601       63.9904043039       98.8013664008
C               183.4648023954       63.8383428838       97.3574845706
C               182.6448077898       63.1315117965       96.4842522244
C               184.6326694578       64.3998396377       96.8617560873
C               182.9604000565       63.0118168081       95.1474797212
C               184.9547305392       64.2941309371       95.5209411913
C               184.1167697641       63.6073507159       94.6460662465
O               184.3744014928       63.4834597811       93.3183158754
H               182.3233213475       61.3146944562       99.1929992025
H               184.7391994467       62.9128276268       99.7365951662
H               181.9919394079       63.9597758091       98.8882923558
H               183.4452600854       64.9425195477       99.1876304946
H               181.7344706268       62.6734654685       96.8445957522
H               185.2909053657       64.9400462263       97.5253636995
H               182.3339062393       62.4470359302       94.4755242015
H               185.8570359278       64.7512194590       95.1428793885
H               185.0353339046       64.1484261731       93.0122016670
N               193.1270013540       70.0001198837      109.3031780711
C               191.8970749190       69.6775599052      108.6104273487
C               191.2470509663       68.4504587574      109.2336140691
O               191.7909141582       67.3597037502      109.3456549805
C               192.1363281498       69.5218345309      107.0918193059
C               190.8077160124       69.2029328008      106.3988229747
C               193.2100202156       68.4816654672      106.8009856538
C               190.8880824250       69.3412278917      104.8833703950
H               193.6403904198       69.2550895734      109.7753281154
H               191.2235526751       70.5306848385      108.7587513572
H               192.4985700766       70.4973606532      106.7437237399
H               190.5070577840       68.1876992599      106.6684923981
H               190.0469464084       69.8853372504      106.7870212249
H               193.3764132345       68.3990056389      105.7323876394
H               194.1504992045       68.7700093389      107.2666849074
H               192.9179905879       67.5145942285      107.2020381582
H               189.9012300008       69.2264912816      104.4455227872
H               191.2736306989       70.3232277986      104.6231732839
H               191.5455224561       68.5881780030      104.4621313925
H               181.1782033700       67.5037072830       90.4772708719
H               198.1048920588       73.9379218840      102.4598578533
H               197.8961924041       64.7060311588      107.2749495831
H               196.5654876628       63.7062425828      108.7881166460
H               192.9917145538       61.8000151248       99.6184561620
H               179.9233753617       71.7241157632       91.9562981099
H               186.0828315855       73.2401280041      100.9190276239
H               188.2176932303       60.4563132954       99.0678637744
H               183.5274758287       61.5302761072       98.2752724805
H               183.5397401582       63.4423630478      101.8133780516
H               193.7186382828       70.3458820600      108.7197277631
H               190.3126245299       68.5040741196      109.5857115383
