 297 
 
N               177.7030000000       64.2630000000      116.1820000000
C               177.6130000000       64.3280000000      117.6450000000
C               176.2180000000       64.0570000000      118.1960000000
O               175.6850000000       64.8520000000      118.9810000000
C               178.1030000000       65.7080000000      118.1630000000
C               178.6070000000       65.7550000000      119.6290000000
C               179.9250000000       64.9650000000      119.8180000000
C               181.1120000000       65.6990000000      119.1900000000
N               181.1060000000       65.6430000000      117.6710000000
H               178.1830000000       63.6090000000      115.8970000000
H               178.1880000000       63.6170000000      117.9680000000
H               178.8200000000       66.0130000000      117.5850000000
H               177.3760000000       66.3430000000      118.0710000000
H               178.7440000000       66.6780000000      119.8930000000
H               177.9260000000       65.3900000000      120.2160000000
H               180.0900000000       64.8300000000      120.7640000000
H               179.8370000000       64.0860000000      119.4170000000
H               181.1000000000       66.6260000000      119.4750000000
H               181.9380000000       65.3110000000      119.5200000000
H               181.9320000000       65.4930000000      117.3760000000
H               180.5710000000       64.9860000000      117.4000000000
H               180.8120000000       66.4180000000      117.3460000000
N               175.6140000000       62.9650000000      117.7550000000
C               174.2840000000       62.5860000000      118.1840000000
C               174.3460000000       61.9090000000      119.5720000000
O               175.3790000000       61.9050000000      120.2140000000
C               173.6300000000       61.6340000000      117.1600000000
C               174.3050000000       60.2940000000      117.0100000000
C               173.7820000000       59.1580000000      117.6280000000
C               175.4450000000       60.1480000000      116.2100000000
C               174.3560000000       57.9200000000      117.4460000000
C               176.0460000000       58.8970000000      116.0120000000
C               175.4970000000       57.7890000000      116.6400000000
O               176.1000000000       56.5590000000      116.4520000000
H               175.9690000000       62.4190000000      117.1930000000
H               173.7430000000       63.3880000000      118.2460000000
H               172.7070000000       61.4880000000      117.4190000000
H               173.6160000000       62.0720000000      116.2950000000
H               173.0320000000       59.2380000000      118.1730000000
H               175.8120000000       60.8980000000      115.8010000000
H               173.9880000000       57.1710000000      117.8570000000
H               176.7970000000       58.8120000000      115.4710000000
H               176.7650000000       56.6470000000      115.9470000000
N               173.2480000000       61.2880000000      119.9960000000
C               173.2120000000       60.6440000000      121.3060000000
C               172.6880000000       59.1930000000      121.2570000000
O               171.4920000000       58.9710000000      121.0350000000
C               172.3950000000       61.4920000000      122.3080000000
O               172.8860000000       62.8510000000      122.3300000000
C               172.5020000000       60.9490000000      123.6660000000
H               172.5190000000       61.2280000000      119.5440000000
H               174.1310000000       60.5900000000      121.6120000000
H               171.4690000000       61.4710000000      122.0200000000
H               172.4350000000       63.3030000000      122.8760000000
H               171.9820000000       61.4960000000      124.2750000000
H               172.1630000000       60.0400000000      123.6790000000
H               173.4320000000       60.9510000000      123.9430000000
N               173.5890000000       58.2280000000      121.3950000000
C               173.2410000000       56.7910000000      121.4300000000
C               172.5350000000       56.2300000000      120.1840000000
O               171.8320000000       56.9360000000      119.4640000000
C               172.4230000000       56.4810000000      122.6600000000
H               174.4320000000       58.3800000000      121.4730000000
H               174.1000000000       56.3410000000      121.4510000000
H               172.2010000000       55.5370000000      122.6720000000
H               172.9350000000       56.7020000000      123.4540000000
H               171.6060000000       57.0040000000      122.6460000000
N               172.7390000000       54.9340000000      119.9540000000
C               172.1640000000       54.2090000000      118.8200000000
C               171.6110000000       52.8850000000      119.3570000000
O               170.5250000000       52.4200000000      118.9610000000
C               173.2300000000       53.9710000000      117.7530000000
C               172.7930000000       52.9890000000      116.6850000000
O               171.6140000000       52.9810000000      116.2860000000
O               173.6490000000       52.2230000000      116.2180000000
H               173.2260000000       54.4410000000      120.4630000000
H               171.4520000000       54.7200000000      118.4040000000
H               173.4550000000       54.8170000000      117.3350000000
H               174.0370000000       53.6410000000      118.1780000000
N               172.3510000000       52.3180000000      120.2980000000
C               172.0390000000       51.0750000000      120.9770000000
C               172.8010000000       51.1710000000      122.3000000000
O               173.5600000000       50.2640000000      122.6490000000
C               172.5040000000       49.8630000000      120.1630000000
C               171.8170000000       49.7530000000      118.8210000000
O               170.5710000000       49.6280000000      118.7900000000
O               172.5210000000       49.8130000000      117.8000000000
H               173.0880000000       52.6680000000      120.5710000000
H               171.0850000000       50.9540000000      121.1030000000
H               173.4630000000       49.9200000000      120.0260000000
H               172.3380000000       49.0550000000      120.6730000000
N               172.6480000000       52.2920000000      122.9750000000
C               173.3670000000       52.5240000000      124.2200000000
C               174.6360000000       53.3120000000      123.9070000000
O               175.0390000000       53.3490000000      122.7490000000
H               172.1320000000       52.9360000000      122.7330000000
H               172.8100000000       53.0160000000      124.8440000000
H               173.5900000000       51.6800000000      124.6430000000
N               175.2530000000       53.9000000000      124.9250000000
C               176.4710000000       54.7030000000      124.8040000000
C               176.4500000000       55.8360000000      123.7380000000
O               175.6690000000       55.7720000000      122.7810000000
C               177.7660000000       53.8240000000      124.6450000000
O               177.5810000000       52.8070000000      123.6320000000
C               178.1390000000       53.1830000000      125.9910000000
H               174.9670000000       53.8420000000      125.7340000000
H               176.4980000000       55.1630000000      125.6580000000
H               178.4930000000       54.4000000000      124.3610000000
H               176.9340000000       53.0170000000      123.1390000000
H               178.9380000000       52.6440000000      125.8820000000
H               178.3060000000       53.8790000000      126.6460000000
H               177.4090000000       52.6210000000      126.2950000000
N               177.2440000000       56.8790000000      123.9130000000
C               177.2330000000       57.9770000000      122.9320000000
C               178.2340000000       57.6590000000      121.8420000000
O               179.2990000000       57.1250000000      122.1360000000
C               177.5720000000       59.3120000000      123.5830000000
O               177.2570000000       60.3930000000      122.6980000000
H               177.7870000000       56.9800000000      124.5720000000
H               176.3410000000       58.0570000000      122.5580000000
H               177.0770000000       59.4100000000      124.4110000000
H               178.5140000000       59.3370000000      123.8110000000
H               177.4470000000       61.1230000000      123.0680000000
N               177.8760000000       57.9340000000      120.5910000000
C               178.7390000000       57.6510000000      119.4770000000
C               178.8040000000       58.8690000000      118.5580000000
O               178.0430000000       59.8180000000      118.7310000000
C               178.2420000000       56.4460000000      118.6570000000
C               178.1220000000       55.1460000000      119.4000000000
C               176.6860000000       54.7780000000      119.5550000000
C               176.5370000000       53.3640000000      120.1010000000
N               175.1040000000       53.0870000000      120.3200000000
H               177.1240000000       58.2900000000      120.3750000000
H               179.6160000000       57.4400000000      119.8350000000
H               177.3740000000       56.6670000000      118.2850000000
H               178.8460000000       56.3160000000      117.9090000000
H               178.5930000000       54.4460000000      118.9210000000
H               178.5400000000       55.2230000000      120.2720000000
H               176.2510000000       55.4060000000      120.1530000000
H               176.2380000000       54.8450000000      118.6980000000
H               176.9120000000       52.7220000000      119.4780000000
H               177.0280000000       53.2720000000      120.9330000000
H               174.9480000000       53.0030000000      121.1920000000
H               174.6190000000       53.7590000000      119.9950000000
H               174.8800000000       52.3320000000      119.9050000000
N               179.7130000000       58.8140000000      117.6000000000
C               179.9020000000       59.8690000000      116.6600000000
C               180.3030000000       59.2650000000      115.3150000000
O               181.0940000000       58.3090000000      115.2490000000
C               181.0240000000       60.8560000000      117.1460000000
O               180.5520000000       61.6020000000      118.2800000000
C               181.4350000000       61.7990000000      116.0570000000
H               180.2410000000       58.1450000000      117.4850000000
H               179.0740000000       60.3670000000      116.5730000000
H               181.8000000000       60.3300000000      117.3960000000
H               181.1530000000       62.1280000000      118.5400000000
H               182.1270000000       62.3930000000      116.3870000000
H               181.7770000000       61.2940000000      115.3030000000
H               180.6680000000       62.3220000000      115.7750000000
N               174.7210000000       55.8880000000      110.3590000000
C               174.5350000000       55.4510000000      111.7460000000
C               173.9750000000       54.0450000000      111.7350000000
O               172.8920000000       53.7900000000      111.1910000000
C               173.6100000000       56.4100000000      112.5440000000
C               174.1710000000       57.8490000000      112.4930000000
C               173.4320000000       55.9190000000      113.9820000000
C               173.4450000000       58.7980000000      113.4530000000
H               173.9980000000       55.9250000000      109.8950000000
H               175.3940000000       55.4650000000      112.1960000000
H               172.7310000000       56.4180000000      112.1340000000
H               175.1160000000       57.8320000000      112.7130000000
H               174.0960000000       58.1900000000      111.5880000000
H               172.8520000000       56.5300000000      114.4630000000
H               173.0340000000       55.0340000000      113.9750000000
H               174.2960000000       55.8810000000      114.4210000000
H               173.8310000000       59.6850000000      113.3850000000
H               172.5040000000       58.8370000000      113.2200000000
H               173.5400000000       58.4740000000      114.3620000000
N               174.7290000000       53.0940000000      112.2610000000
C               174.2760000000       51.7010000000      112.2700000000
C               174.2550000000       51.1380000000      110.8740000000
O               175.3070000000       50.7380000000      110.3430000000
H               175.5010000000       53.2260000000      112.6170000000
H               174.8630000000       51.1690000000      112.8290000000
H               173.3890000000       51.6470000000      112.6590000000
N               172.4000000000       65.5980000000      117.8160000000
C               171.8940000000       65.4200000000      119.1720000000
C               170.5600000000       64.6800000000      119.2870000000
O               169.8000000000       64.9160000000      120.2240000000
H               173.2310000000       65.3980000000      117.7170000000
H               172.5590000000       64.9370000000      119.6880000000
H               171.7970000000       66.2940000000      119.5810000000
N               170.2710000000       63.8050000000      118.3300000000
C               169.0390000000       63.0590000000      118.3580000000
C               169.2600000000       61.7510000000      119.1080000000
O               170.0300000000       60.8990000000      118.6750000000
C               168.5890000000       62.7160000000      116.9250000000
C               167.5420000000       61.6660000000      116.8370000000
N               166.2060000000       61.9520000000      116.9490000000
C               167.6390000000       60.3430000000      116.6210000000
C               165.5030000000       60.8460000000      116.8020000000
N               166.3420000000       59.8400000000      116.6180000000
H               170.7810000000       63.6340000000      117.6590000000
H               168.3660000000       63.5980000000      118.8020000000
H               168.2570000000       63.5230000000      116.5020000000
H               169.3630000000       62.4270000000      116.4170000000
H               168.4230000000       59.8570000000      116.4980000000
H               164.5760000000       60.7840000000      116.8240000000
H               166.1230000000       59.0150000000      116.5150000000
N               168.6420000000       61.6080000000      120.2780000000
C               168.8070000000       60.3950000000      121.0730000000
C               168.0810000000       59.2110000000      120.4350000000
O               166.8460000000       59.0690000000      120.5790000000
C               168.3170000000       60.5930000000      122.5120000000
C               168.6940000000       59.4510000000      123.4180000000
O               168.4530000000       58.3000000000      123.0850000000
N               169.2810000000       59.7960000000      124.5800000000
H               168.1250000000       62.1990000000      120.6280000000
H               169.7570000000       60.2010000000      121.0970000000
H               168.6880000000       61.4170000000      122.8650000000
H               167.3520000000       60.6940000000      122.5100000000
H               169.5120000000       59.1880000000      125.1430000000
H               169.4250000000       60.6250000000      124.7590000000
N               168.8220000000       58.3620000000      119.7300000000
C               168.2730000000       57.1930000000      119.0680000000
C               167.6820000000       56.1550000000      120.0150000000
O               166.8180000000       55.3790000000      119.5980000000
C               169.2860000000       56.5320000000      118.1190000000
C               169.5920000000       57.3520000000      116.8920000000
C               170.6380000000       58.2870000000      116.8930000000
C               168.8630000000       57.1970000000      115.7370000000
C               170.9060000000       59.0460000000      115.7690000000
C               169.1330000000       57.9330000000      114.6090000000
C               170.1660000000       58.8570000000      114.6170000000
H               169.6700000000       58.4540000000      119.6230000000
H               167.5340000000       57.5400000000      118.5440000000
H               170.1110000000       56.3680000000      118.6030000000
H               168.9420000000       55.6680000000      117.8430000000
H               171.1560000000       58.3970000000      117.6570000000
H               168.1690000000       56.5780000000      115.7190000000
H               171.5830000000       59.6830000000      115.7880000000
H               168.6230000000       57.8110000000      113.8410000000
H               170.3600000000       59.3470000000      113.8510000000
N               168.0800000000       56.2040000000      121.2750000000
C               167.5600000000       55.2780000000      122.2810000000
C               166.1310000000       55.6970000000      122.7230000000
O               165.3050000000       54.8620000000      123.0830000000
C               168.5120000000       55.2540000000      123.4860000000
C               168.1960000000       54.1610000000      124.4890000000
C               168.8620000000       54.3770000000      125.8370000000
C               170.3660000000       54.6350000000      125.7360000000
N               170.7090000000       56.0670000000      125.4280000000
H               168.6550000000       56.7690000000      121.5750000000
H               167.5040000000       54.3880000000      121.8980000000
H               169.4210000000       55.1380000000      123.1680000000
H               168.4760000000       56.1140000000      123.9340000000
H               167.2350000000       54.1120000000      124.6130000000
H               168.4790000000       53.3070000000      124.1280000000
H               168.4410000000       55.1290000000      126.2820000000
H               168.7110000000       53.5970000000      126.3940000000
H               170.7870000000       54.3810000000      126.5720000000
H               170.7390000000       54.0650000000      125.0460000000
H               171.5650000000       56.2160000000      125.6210000000
H               170.5680000000       56.2270000000      124.5640000000
H               170.1970000000       56.6070000000      125.9170000000
N               165.8650000000       56.9990000000      122.7390000000
C               164.5350000000       57.4650000000      123.1840000000
C               163.6090000000       57.5210000000      121.9850000000
O               162.4060000000       57.2740000000      122.0640000000
C               164.6530000000       58.8690000000      123.8070000000
H               166.4140000000       57.6180000000      122.5060000000
H               164.1820000000       56.8530000000      123.8490000000
H               163.7770000000       59.1690000000      124.0970000000
H               165.2520000000       58.8360000000      124.5690000000
H               165.0040000000       59.4870000000      123.1470000000
N               164.0460000000       55.8130000000      118.5380000000
C               164.6840000000       54.8970000000      117.5910000000
C               164.2930000000       55.0520000000      116.1480000000
O               165.0600000000       55.6090000000      115.3350000000
C               164.3310000000       53.5020000000      118.1510000000
C               163.0310000000       53.7500000000      118.8040000000
C               163.2550000000       55.0560000000      119.5190000000
H               165.6360000000       55.0770000000      117.5400000000
H               164.2630000000       52.8360000000      117.4490000000
H               164.9980000000       53.1840000000      118.7800000000
H               162.3110000000       53.8130000000      118.1580000000
H               162.7970000000       53.0390000000      119.4200000000
H               162.4200000000       55.5010000000      119.7320000000
H               163.7330000000       54.9350000000      120.3540000000
H               176.8787886666       64.1636861449      115.8344191660
H               179.9273549622       59.6389856635      114.4670462695
H               175.0790287210       56.7136676944      110.3496035445
H               173.3932920025       51.0842713290      110.3694481623
H               171.9353761171       65.0739554414      117.2507549664
H               163.9701656596       57.7662862353      121.0853367135
H               164.6765958148       56.3018332867      118.9544023730
H               163.4100249842       54.7072413809      115.8294146645
