 436 
 
N                22.0557855214       14.9523018048       15.1823531739
C                20.8289539362       15.6811051146       15.3081041853
C                20.5293340800       15.7942869193       16.7764721944
O                20.3530893485       16.8823725489       17.2988372503
C                19.7363071298       15.1986565980       14.3967432375
C                19.7018992172       15.8240419859       13.0589965661
C                20.1910907063       15.1906920101       11.9384088318
C                19.2445973905       17.1095047647       12.8764552015
C                20.2336677482       15.7931648288       10.7412233110
C                19.2887114556       17.7136761941       11.6752836189
C                19.7856849384       17.0611276685       10.5998119857
H                21.9200965421       14.0406601052       15.0494970034
H                20.9311909416       16.6421580226       14.9641723032
H                19.8284221585       14.1904681443       14.2889645041
H                18.8331630289       15.3384711728       14.8501266519
H                20.5241545265       14.2436409447       12.0497532704
H                18.8733388880       17.5845575360       13.6874009717
H                20.6041886722       15.2940763155        9.9391732232
H                18.9482846821       18.6646242490       11.5751381848
H                19.8222120712       17.5150976226        9.6931358636
N                20.4560497529       14.6948077744       17.4712265308
C                20.1308334903       14.6934016107       18.8590057065
C                21.0889447129       15.1303172773       19.9674677622
O                20.7024820133       15.2121853096       21.1242662980
C                19.5604918731       13.3312073912       19.0919181579
C                18.9385248121       12.7148822555       17.8634977143
C                18.0980274687       11.5445782334       18.1977832347
C                18.1339622079       13.7212878443       17.1363740030
H                20.5632914843       13.8425479793       17.1105977220
H                19.5244653110       15.5184125861       18.9625702483
H                20.2982235936       12.7204211555       19.4554543258
H                18.8599544288       13.3589998737       19.8340428953
H                19.7059313000       12.4021653746       17.2533358850
H                17.6894424241       11.1308773993       17.3646478778
H                18.6317837594       10.8244142263       18.6736590503
H                17.3364701712       11.8259685187       18.8090194053
H                17.7291739804       13.3347865144       16.2912340860
H                17.3785507171       14.0554874215       17.7259299246
H                18.6911102698       14.5249118462       16.8699539098
N                20.7765986576       22.2098598978       19.0345121614
C                19.6776300689       23.1285954604       18.9299431360
C                19.7481594219       24.2556886513       19.9367006534
O                20.0609055712       24.0177643362       21.0675486230
C                18.3869263126       22.4089815142       19.1092710646
C                18.3798972574       21.3093961096       18.1903428386
C                18.9547087134       20.1266558734       18.3447073800
C                18.0373053568       21.4041909882       16.8245364782
N                19.0126875093       19.4812229906       17.2265221497
C                18.4626893669       20.2072252888       16.2361525559
C                17.4336997525       22.3399120974       16.0116319710
C                18.2699997789       19.9943746340       14.8928097446
C                17.2698056227       22.0937690426       14.7281830076
C                17.6857978379       20.9265091087       14.1733073690
H                20.5253099544       21.3172875098       19.1213132350
H                19.7533462149       23.5391597420       17.9930815704
H                18.2888777158       22.0786355728       20.0681861248
H                17.5866358981       23.0169645927       18.9480927155
H                19.2950577928       19.7864003850       19.2353016818
H                19.3839846563       18.6250251591       17.0926722793
H                17.1259933846       23.2063891870       16.4262181881
H                18.5831701863       19.1246699796       14.4920445726
H                16.8250207054       22.7856241808       14.1379246720
H                17.5426315032       20.7707931071       13.1838266369
N                17.7954450493       19.5284599679       22.5342337951
C                16.3816087891       19.6872907195       22.5437517127
C                15.6571203650       18.4436537159       22.0733739595
O                15.1867585199       17.6487921369       22.8802679172
C                15.9174945116       20.8806171528       21.7625210328
O                14.5396781802       20.8679765356       21.6263499667
H                18.1245784810       19.1543931240       21.7489375063
H                16.1290978814       19.8402717492       23.5283948397
H                16.2279447096       21.7441351114       22.2149109161
H                16.3832992729       20.8855053551       20.8527388945
H                14.3109810954       21.3767355984       20.9152086649
N                15.5768009985       18.2428342260       20.7509041372
C                14.8941133334       17.0463634655       20.2750230561
C                15.6654194129       15.7600490111       20.5665668476
O                16.2719546535       15.2102304742       19.6702241928
C                14.7777993890       17.2848498569       18.8175169445
C                16.0954552101       17.8925307447       18.5240179208
C                16.2582343722       18.8712340189       19.6286489032
H                13.9941898429       16.9084216418       20.7529727445
H                14.5794539019       16.4294929159       18.2865833048
H                13.9984602233       17.9069396680       18.5750221732
H                16.8420841848       17.1851645273       18.5201667929
H                16.1497586353       18.3135947735       17.5903897978
H                17.2393454071       19.0828401466       19.8427905107
H                15.8530502280       19.7857494079       19.3935812404
N                10.0225246390       14.5267787911       21.5637393513
C                 9.8420883200       14.9864418554       20.2068020070
C                10.4252606914       16.3881884275       20.0647609412
O                10.8980148546       16.9597670780       21.0226229028
C                 8.4126646408       14.9817650991       19.7525605895
C                 8.1998617795       15.1949909890       18.3070052791
C                 6.7960523841       15.3317727060       17.8566834057
N                 6.6111636557       15.2265664605       16.4352169952
C                 5.4756441656       15.3353727613       15.7392984090
N                 4.4496567788       15.5673792206       16.3592552811
N                 5.4821087402       15.2182677799       14.5305749455
H                 9.2501881314       14.1771056564       21.9496459205
H                10.3638386875       14.3402529137       19.6000701036
H                 7.9726212703       14.1005597303       20.0240045873
H                 7.9025181386       15.6989030128       20.2706933500
H                 8.7188341266       16.0244771179       18.0202331608
H                 8.6428346345       14.4294108573       17.7921771970
H                 6.2241981567       14.6283656103       18.3243732594
H                 6.4180721843       16.2236788980       18.1802395561
H                 7.3920306475       15.0460517615       15.9529229052
H                 4.3745829096       15.6682563381       17.3117055871
H                 3.5894057896       15.6654873661       15.9578223506
H                 6.2524012960       15.0316782932       13.9818236173
H                 4.7074819873       15.2868737247       13.9742529121
N                10.3697677382       16.9851838189       18.8803985237
C                10.8643424896       18.3116616236       18.6239413740
C                 9.8617826069       19.3769476378       19.0479207989
O                 8.7151805777       19.2848943141       18.6188234767
C                11.1963664674       18.5039460029       17.1811947049
C                11.9497679737       19.7335785412       16.8322272957
C                13.1875911607       20.0044974809       17.3577312238
C                11.5082988111       20.6215621843       15.8895495302
C                13.9121497901       21.0475822948       16.9649393194
C                12.2390325153       21.6621932425       15.5000441754
C                13.4464774651       21.8829381692       16.0300004165
H                10.0022146711       16.5733302615       18.1314995423
H                11.7114179462       18.4277161425       19.1883528824
H                11.7189027200       17.6917778591       16.8455531681
H                10.3249478107       18.4857665673       16.6480052257
H                13.5349469547       19.3741276014       18.0630029896
H                10.5968215873       20.4538317779       15.4975933910
H                14.8250391513       21.2104143056       17.3731460127
H                11.8788852322       22.2942704361       14.7940610838
H                14.0018375411       22.6749835326       15.7292398980
N                10.2523661807       20.3765983275       19.8558640283
C                 9.3225190782       21.4318170425       20.2652560528
C                 8.2556014708       21.7026354750       19.2136402226
O                 8.5086748236       21.5922408699       18.0393357658
C                10.2275996441       22.5771744198       20.5601498946
C                11.3832836558       21.9216333797       21.1521045109
C                11.5933817343       20.7451670745       20.2816909766
H                 8.7782375313       21.1721407121       21.0988107955
H                10.4725807405       23.0906838578       19.7067251435
H                 9.8008438189       23.2851933003       21.1655592041
H                12.1989253958       22.5354974845       21.2096303988
H                11.2011548171       21.6543639549       22.1255335052
H                12.2008023440       20.9604260821       19.4815560450
H                12.0717215330       19.9712697701       20.7562036471
N                 7.0545203003       22.0890620849       19.6421200316
C                 5.9196504741       22.3099412987       18.7856309408
C                 5.6550148562       23.6592030240       18.1126100137
O                 4.9081396218       23.7157177202       17.1559295315
C                 4.6596258539       21.8438967414       19.4583231868
C                 4.4690997827       22.4119694763       20.8544974600
O                 5.3930557076       22.2328358345       21.6777004962
O                 3.4217780259       23.0288660452       21.1087495026
H                 6.8613138653       22.2308334475       20.5426335171
H                 6.2088131140       21.7596608621       17.9666377987
H                 3.8447425167       22.0866287022       18.8914808563
H                 4.6437918905       20.8247159077       19.5148683639
N                 6.2429451054       24.7414691127       18.5987105010
C                 6.0680298517       26.0708016275       18.0705344943
C                 7.3200296512       26.6957195318       17.4534282043
O                 7.4811977859       26.7721403772       16.2622727761
C                 5.4551003410       27.0105295093       19.0759611665
O                 4.0686124301       26.9613027158       19.0968160610
H                 6.8130752514       24.7079769017       19.3340202490
H                 5.4120836898       25.9297158181       17.2921950010
H                 5.8350466074       26.7912497090       20.0018500141
H                 5.7739008934       27.9664587434       18.8880439501
H                 3.7610582309       27.5351621739       19.7225216749
N                 8.1899511945       27.1756491008       18.3304940183
C                 9.4414159203       27.8054569228       18.0087368882
C                10.2278148140       27.1000705992       16.9073844007
O                 9.8048885892       26.1523573789       16.3199194723
C                10.3011425729       27.9618608770       19.2259895316
C                10.7083482820       26.6342601798       19.8532832777
O                 9.8058437603       25.9276941366       20.3435434164
O                11.9095884281       26.3208481682       19.8331659433
H                 8.0483184253       27.1135527732       19.2481564179
H                 9.1645324985       28.7144614415       17.6152263236
H                11.1441392496       28.4918371582       18.9979465684
H                 9.8211805171       28.5287051636       19.9274326268
N                11.4379115725       27.6153839455       16.6545280977
C                12.3392933658       27.0961940657       15.6838524150
C                13.6133039082       26.4806661538       16.2799005371
O                13.6312317605       25.3479919297       16.6466695912
C                12.5996423080       28.1166937545       14.6197199969
C                11.4262712069       28.4666127884       13.7575980191
C                10.2216926830       28.8688519639       14.3069755504
C                11.4633912690       28.3818453006       12.3718367284
C                 9.1512324225       29.1518999996       13.5335637473
C                10.3923237809       28.6682029238       11.5987093737
C                 9.2281011367       29.0552426081       12.1779180565
H                11.7717549431       28.3598724965       17.1017715237
H                11.8616419446       26.2923515617       15.2581194689
H                12.9552115841       28.9631459764       15.0690054322
H                13.3686981131       27.7960968027       14.0273159865
H                10.1693924620       28.9408673327       15.3127834020
H                12.3348343786       28.0932669050       11.9491759035
H                 8.2829825907       29.4383700966       13.9742853725
H                10.4611968459       28.5925346618       10.5882155765
H                 8.4204093022       29.2725306603       11.6020425691
N                14.6762951957       27.2889891518       16.3584864528
C                15.9734896721       26.9005102744       16.8745173718
C                17.0217512212       26.8385017590       15.7834261082
O                16.7755602686       26.3084998061       14.7243315629
C                15.9118029178       25.5942710173       17.6336130331
C                15.1706873799       25.6333620871       18.9298333701
C                14.6409140476       24.3282325391       19.3926316775
C                13.9971962107       24.3659251688       20.7353224816
N                14.8654262371       24.7008883171       21.7768098021
H                14.6382586783       28.1723980585       16.0689163735
H                16.2481426153       27.6261143731       17.5478872069
H                15.4750148923       24.8917722288       17.0327600744
H                16.8583189309       25.2423068927       17.7932816215
H                15.7764220249       26.0201674830       19.6538689478
H                14.4030865401       26.3056571277       18.8583040197
H                13.9920357577       23.9680926450       18.6840709582
H                15.4035705138       23.6454683334       19.4054615574
H                13.2092358853       25.0285110620       20.7035279505
H                13.5457954743       23.4640324610       20.9337609430
H                14.4964014512       24.5628865997       22.6524997746
H                15.6769533843       24.1938867793       21.7505562701
H                15.1306080784       25.6220531679       21.7505134989
N                14.4075145759       25.6670903460       11.9879547422
C                13.6505280875       24.4745010226       11.7477015857
C                12.3779658782       24.3492376142       12.5728256735
O                12.4389360227       23.8781904608       13.6736771439
C                14.4739965638       23.2660741441       12.0616055437
C                15.5332553084       22.8631670900       11.1147009125
C                16.8617673992       22.9659663919       11.4299640493
C                15.2454470968       22.3471016966        9.8798130589
C                17.8151119224       22.5931570174       10.5998952852
C                16.1903200675       21.9645783022        9.0350252240
C                17.5144699735       22.0746421722        9.3697715075
O                18.5303868793       21.6867361211        8.5464024480
H                14.0686727140       26.1968846776       12.6713825415
H                13.4173813912       24.5260926577       10.7509384365
H                14.8966180108       23.4149792641       12.9802384639
H                13.8421405688       22.4742698094       12.1949106603
H                17.1010114073       23.3468493677       12.3314802700
H                14.2742128322       22.2627309625        9.6203252399
H                18.7864694560       22.6812355433       10.8535492388
H                15.9542180383       21.5864925294        8.1294404011
H                18.1690660099       21.3696636264        7.7835233321
N                11.2153536789       24.7618725279       12.0693340120
C                10.0030424531       24.5736464029       12.8094195345
C                 9.9385088544       23.0390438835       12.8885316223
O                10.6162542281       22.3615601972       12.1316909423
C                 8.8119340892       25.1863602410       12.1238318968
C                 8.6765752773       24.8502469014       10.6539559876
O                 8.7379995983       23.6721021477       10.3060320621
N                 8.5166780253       25.7908672010        9.8835017792
H                11.1148479521       25.1443093010       11.2268613570
H                10.0115105658       25.0289415825       13.7360097297
H                 7.9585936519       24.9066406256       12.6169611317
H                 8.8405037988       26.2031504668       12.2285957177
H                 8.4230111577       25.6949597609        8.9424027031
H                 8.4662700718       26.7044760144       10.1422117029
N                 9.1343996055       22.4813896435       13.7687093617
C                 9.0159946522       21.0682822323       13.9539360767
C                 8.7617170191       20.2980199877       12.6587051837
O                 9.2810630479       19.2103752937       12.4590423753
C                 8.1369286463       20.6579465780       15.0998959215
C                 8.0249219729       19.2030079184       15.3632588764
C                 6.7879880427       18.6102119214       14.8135913752
N                 5.6361700042       19.0607776778       15.5212721483
C                 5.4332112605       18.9061719740       16.8433454748
N                 6.2424626200       18.3181175007       17.4740958266
N                 4.4196247442       19.3563281540       17.3460115182
H                 8.5870772388       22.9762145300       14.3365201821
H                 9.9512500711       20.7574448146       14.2288755440
H                 8.4488548302       21.1347074371       15.9517676306
H                 7.1989516015       21.0220324816       14.9310415742
H                 8.8515890807       18.7286388884       14.9893532242
H                 8.0666888296       19.0220303347       16.3701259330
H                 6.7191071915       18.8328616946       13.8155795851
H                 6.8264532811       17.5869301901       14.8397839477
H                 4.9868993747       19.5180291779       15.0288469734
H                 7.0753791233       17.9427265118       17.1441197024
H                 6.1998922595       18.1590193966       18.4191695617
H                 3.7212359314       19.8471564948       16.9000768348
H                 4.2087992997       19.2843345941       18.2754864824
N                 7.9557685524       20.8286177906       11.7623505505
C                 7.6726782578       20.1812106239       10.5155602125
C                 8.8390083599       19.9781103943        9.5353997642
O                 8.8625071633       19.0462197243        8.7536330950
C                 6.4916913433       20.8313838657        9.8549411898
O                 5.3365473174       20.6941923803       10.6113283441
H                 7.5258746152       21.6450672848       11.8795796431
H                 7.4588130076       19.2139469504       10.7874252862
H                 6.7040309740       21.8214426913        9.6967123808
H                 6.3580214038       20.4461697582        8.9151717228
H                 4.6544683768       21.1076322242       10.1876697930
N                 9.8064686081       20.8753756909        9.5754925769
C                10.9705508406       20.8306914907        8.7474442615
C                12.0436118324       19.9040258459        9.3105651932
O                12.6448733392       19.1119936365        8.6124849442
C                11.5631366775       22.1932516549        8.4827489977
O                12.7588606217       22.1271866176        7.7763841975
H                 9.7967880372       21.5980727209       10.1633824109
H                10.6651824654       20.4328097180        7.8498037320
H                10.8841394567       22.7769630660        7.9848817095
H                11.7003504277       22.6677752784        9.3799389575
H                13.0772672390       22.9642652137        7.6529787251
N                12.2891118173       20.0124199333       10.6034335051
C                13.2693839239       19.2176808274       11.2810712154
C                13.0774144995       17.7202056063       11.1511795555
O                14.0053700775       16.9431308114       11.2316703234
C                13.3923059205       19.5284899693       12.7408443314
C                13.9596852255       18.4306635507       13.5578532540
C                13.1575950462       17.5502176246       14.2213459100
C                15.3032467596       18.1928437147       13.6018619074
C                13.6787995899       16.5073629030       14.8726368211
C                15.8123111456       17.1495726360       14.2532090436
C                14.9947635224       16.3068515609       14.8873530398
H                11.8360948850       20.6062685687       11.1596305112
H                14.1421343386       19.4491149780       10.7928222940
H                13.9560133135       20.3691811029       12.8725579511
H                12.4679008840       19.7739254408       13.0998136694
H                12.1615179680       17.7025309219       14.2069653594
H                15.9107824642       18.8353010844       13.1195589159
H                13.0486252326       15.8734291182       15.3521269820
H                16.8141954865       17.0024512402       14.2621863204
H                15.3846746501       15.5115594418       15.3817584718
N                11.8331230957       17.3098701433       11.0121627147
C                11.4718514591       15.9432468771       10.8617263250
C                11.1986790210       15.6924373772        9.3957787637
O                10.1607462836       15.2251316059        9.0108731252
C                10.3310163576       15.5626844779       11.7583893005
C                10.7135902837       15.3304924282       13.1695594859
C                 9.5921016688       15.0046305358       14.1265515021
O                 8.7225443822       14.1972368499       13.7449443429
O                 9.5768121022       15.5648614043       15.2436668298
H                11.1030480999       17.8863841028       10.9992078402
H                12.2524021693       15.3454845987       11.1608771546
H                 9.6181040576       16.2957261711       11.7150798651
H                 9.8631618764       14.7294300769       11.3897020497
H                11.3999506272       14.5726452323       13.2111502276
H                11.2126083158       16.1496111094       13.5205469791
N                12.1813831408       16.0594156253        8.5766089619
C                12.1513191625       15.9641079211        7.1543234529
C                13.5432723293       16.0091052746        6.5389139234
O                13.9031896742       15.2174862763        5.6964555986
C                11.2799361952       17.0302423453        6.5371032472
O                11.2025285833       16.9047514707        5.1602360775
H                12.9733137772       16.4283045204        8.8972215072
H                11.7378011169       15.0514775782        6.9233334479
H                10.3463457825       17.0022025894        6.9586644181
H                11.6508679236       17.9481179956        6.7996647450
H                10.6808128181       17.5665172979        4.8337770475
N                14.3499852780       16.9657293283        6.9808355602
C                15.6885336508       17.1363860064        6.5093340426
C                16.6701079172       16.1035240394        7.0687793062
O                17.8225682680       16.0702779685        6.7037085196
C                16.2036673325       18.5420010664        6.7420388680
O                16.2567138813       18.8602491856        8.0930896910
H                14.0997962531       17.5834238645        7.6305085863
H                15.6426301035       16.9594037603        5.4956821301
H                17.1333029458       18.6460846257        6.3222380569
H                15.6196513940       19.2146744074        6.2360966846
H                16.2908656098       19.7580508159        8.1840883251
N                16.2045397490       15.2548153595        7.9758391179
C                17.0039412931       14.2397363697        8.5934235917
C                16.4177727770       12.8380338552        8.4729831546
O                17.1250051650       11.8594314990        8.3776379603
C                17.3143116520       14.5534312524       10.0374723230
O                16.2301956978       14.2964909652       10.8645095346
H                15.3247510595       15.2670159511        8.2779680364
H                17.8866669915       14.2365562494        8.0633896088
H                18.1321049587       14.0186559674       10.3457521315
H                17.6051386427       15.5321430015       10.1217883407
H                16.4554381356       14.5031979490       11.7145888430
N                15.0968450242       12.7243771722        8.4966767721
C                14.4573087473       11.4696866584        8.3871527714
C                13.7494879331       10.8377857200        9.5657465917
O                12.9596626071        9.9281759755        9.4136363713
H                14.5196730381       13.4486739321        8.5906276730
H                13.7810235880       11.5117086480        7.6201859368
H                15.1659998687       10.8034637663        8.0651827913
N                14.0505028680       11.3028330041       10.7618853648
C                13.4186219101       10.8327131467       11.9563486591
C                11.9140030049       10.8389837753       11.6864078198
O                11.4682672676       11.6285084266       10.8882647268
C                13.8359038577       11.6838820274       13.1174111218
C                15.3356551476       11.7761714864       13.2421733652
C                15.7995798186       12.9073815878       14.0871488505
C                15.8513550462       10.4846694447       13.7241548798
H                14.6670259585       11.9869196850       10.9012244936
H                13.7154792235        9.8746227861       12.1800235229
H                13.4217932318       12.6152198084       13.0224504634
H                13.4389565440       11.3239814246       13.9916216803
H                15.7151828029       11.9612004933       12.3058724581
H                16.8128236665       12.9516940148       14.1328990762
H                15.4653811806       13.8005317852       13.7343648364
H                15.4541873973       12.8046843733       15.0330234015
H                16.8610698569       10.4963200501       13.7946102106
H                15.4755578988       10.2828625752       14.6442652347
H                15.5881201600        9.7267588949       13.1028284131
N                11.1276220978        9.9647517774       12.3170356272
C                 9.7003754141        9.8861921683       12.0983982605
C                 8.7406360277        9.9061899104       13.2936185496
O                 8.1150552639       10.8927461209       13.5959266177
C                 9.3626015153        8.7058972967       11.1994662602
C                 9.7588445307        8.9619714015        9.7977320664
C                10.0044698688        7.4706333758       11.7293953203
H                11.4451984186        9.3598010389       12.9464615568
H                 9.5386965797       10.7944825347       11.6462496894
H                 8.3429708515        8.5676721539       11.2171909269
H                 9.5293662615        8.1781764163        9.1947073828
H                 9.2963060996        9.7867036706        9.4219417210
H                10.7612186490        9.1196082390        9.7367647809
H                 9.7776567212        6.6636525134       11.1566446649
H                11.0113325643        7.5815763213       11.7318314498
H                 9.7047064646        7.2707762486       12.6753579748
N                13.2129093773       11.0536817634       17.8102344681
C                13.0321763924       12.4683352638       17.5437368275
C                11.7878870670       12.8978333374       16.7603987296
O                11.0118928177       13.7050077856       17.3179256181
C                14.2430626105       13.0476914618       16.9311803487
O                11.6185907591       12.4508670519       15.6238754515
H                13.8552305829       10.9155962278       18.4677335973
H                12.8431346349       12.8609849867       18.4738182927
H                14.1238604147       14.0365367279       16.7279359926
H                15.0514270603       12.9505139180       17.5371631434
H                14.4471953355       12.5758582405       16.0571095487
H                22.5213551704       15.2668244481       14.4792739402
H                22.0392725745       15.3515222042       19.7485035281
H                21.2877346188       22.2675660053       18.2959933504
H                19.5343444043       25.1912611459       19.6556539569
H                18.1886960610       20.3319327396       22.6331536968
H                15.6680812509       15.3771068414       21.4903353301
H                10.6457663398       13.8777161893       21.5806958070
H                17.9259519602       27.2376183873       15.9355015522
H                15.2503202421       25.4473946405       12.2146977817
H                 8.6179180394        9.0844603363       13.8501262336
H                12.4345883828       10.6988527985       18.0900787737
