 205 
 
N                95.7760000000       56.8950000000      198.3400000000
C                95.1030000000       57.7400000000      197.3240000000
C                96.0550000000       58.1610000000      196.1820000000
O                95.6400000000       58.3380000000      195.0240000000
C                94.4900000000       59.0180000000      197.9620000000
C                93.5980000000       59.7420000000      196.9390000000
C                93.6600000000       58.6410000000      199.1880000000
H                95.5590000000       57.0830000000      199.1510000000
H                94.3960000000       57.1910000000      196.9510000000
H                95.2100000000       59.6090000000      198.2320000000
H                93.2200000000       60.5380000000      197.3450000000
H                94.1290000000       59.9940000000      196.1680000000
H                92.8820000000       59.1510000000      196.6580000000
H                93.2810000000       59.4430000000      199.5810000000
H                92.9450000000       58.0420000000      198.9230000000
H                94.2270000000       58.1990000000      199.8390000000
N                94.6850000000       58.6420000000      192.1840000000
C                94.8200000000       59.8900000000      191.4210000000
C                95.9380000000       59.7690000000      190.3840000000
O                95.7140000000       60.0490000000      189.2110000000
C                95.0570000000       61.0700000000      192.3630000000
C                94.7100000000       62.3800000000      191.7250000000
O                93.6570000000       62.9530000000      191.9650000000
N                95.6090000000       62.8940000000      190.8780000000
H                94.8350000000       58.7090000000      193.0280000000
H                93.9790000000       60.0450000000      190.9630000000
H                94.5270000000       60.9530000000      193.1670000000
H                95.9880000000       61.0820000000      192.6370000000
H                95.4530000000       63.6440000000      190.4870000000
H                96.3440000000       62.4740000000      190.7230000000
N                94.2490000000       71.5230000000      189.0540000000
C                92.9770000000       71.2060000000      189.6780000000
C                92.9840000000       69.9250000000      190.5170000000
O                92.8760000000       70.0260000000      191.7560000000
C                91.8240000000       71.2220000000      188.5930000000
C                90.5200000000       70.7640000000      189.2130000000
C                91.7010000000       72.5520000000      187.9390000000
H                94.1820000000       71.7550000000      188.2290000000
H                92.8020000000       71.9040000000      190.3290000000
H                92.0560000000       70.5960000000      187.8890000000
H                89.8200000000       70.7770000000      188.5420000000
H                90.6230000000       69.8620000000      189.5550000000
H                90.2810000000       71.3590000000      189.9400000000
H                90.9880000000       72.5250000000      187.2820000000
H                91.4990000000       73.2240000000      188.6080000000
H                92.5360000000       72.7750000000      187.4990000000
N                93.1050000000       68.7460000000      189.8930000000
C                93.0990000000       67.4800000000      190.6440000000
C                94.0380000000       67.4220000000      191.8580000000
O                93.6370000000       67.0230000000      192.9590000000
C                93.4200000000       66.4060000000      189.6080000000
C                93.9860000000       67.1610000000      188.4490000000
C                93.2740000000       68.4760000000      188.4440000000
H                92.2330000000       67.3560000000      191.0620000000
H                94.0560000000       65.7610000000      189.9540000000
H                92.6250000000       65.9120000000      189.3530000000
H                94.9440000000       67.2830000000      188.5450000000
H                93.8430000000       66.6830000000      187.6170000000
H                93.7930000000       69.1680000000      188.0050000000
H                92.4220000000       68.4250000000      187.9830000000
N                95.2720000000       67.8630000000      191.6430000000
C                96.2740000000       67.8850000000      192.7260000000
C                95.8290000000       68.7270000000      193.8940000000
O                96.2700000000       68.5120000000      195.0130000000
C                97.5970000000       68.4480000000      192.1500000000
C                98.2400000000       67.5580000000      191.1080000000
C                99.5880000000       68.0640000000      190.6130000000
O                99.6850000000       68.8250000000      189.6440000000
N               100.6130000000       67.7030000000      191.3500000000
H                95.5560000000       68.1540000000      190.8850000000
H                96.3750000000       66.9710000000      193.0340000000
H                97.4240000000       69.3180000000      191.7570000000
H                98.2240000000       68.5850000000      192.8770000000
H                98.3540000000       66.6690000000      191.4800000000
H                97.6390000000       67.4730000000      190.3510000000
H               100.4970000000       67.1700000000      192.0160000000
H               101.3990000000       67.9980000000      191.1680000000
N                95.0010000000       69.7380000000      193.6430000000
C                94.4830000000       70.6010000000      194.7130000000
C                93.2730000000       69.9660000000      195.4080000000
O                93.2160000000       69.9130000000      196.6400000000
C                94.1600000000       71.9880000000      194.1730000000
C                95.3230000000       72.9710000000      194.3460000000
O                95.2940000000       73.8210000000      195.2370000000
N                96.3830000000       72.8300000000      193.5160000000
H                94.7230000000       69.9450000000      192.8560000000
H                95.1760000000       70.6980000000      195.3850000000
H                93.9340000000       71.9210000000      193.2320000000
H                93.3770000000       72.3350000000      194.6280000000
H                97.0670000000       73.3440000000      193.6010000000
H                96.3720000000       72.2260000000      192.9040000000
N                92.3250000000       69.4620000000      194.6030000000
C                91.0840000000       68.8370000000      195.0800000000
C                91.3990000000       67.7700000000      196.1470000000
O                90.8200000000       67.7670000000      197.2350000000
C                90.3170000000       68.1730000000      193.9370000000
C                88.9630000000       67.6070000000      194.4050000000
C                90.0890000000       69.1910000000      192.8180000000
H                92.3900000000       69.4760000000      193.7460000000
H                90.5350000000       69.5400000000      195.4610000000
H                90.8500000000       67.4310000000      193.6120000000
H                88.5070000000       67.1950000000      193.6540000000
H                89.1110000000       66.9430000000      195.0970000000
H                88.4170000000       68.3260000000      194.7590000000
H                89.6020000000       68.7700000000      192.0920000000
H                89.5750000000       69.9390000000      193.1610000000
H                90.9450000000       69.5100000000      192.4910000000
N                92.3030000000       66.8480000000      195.8090000000
C                92.6910000000       65.7550000000      196.7070000000
C                92.8010000000       66.1050000000      198.1960000000
O                92.2230000000       65.4130000000      199.0550000000
C                94.0420000000       65.1570000000      196.2590000000
C                94.0510000000       64.3080000000      194.9960000000
C                95.4570000000       63.8270000000      194.7560000000
C                93.1410000000       63.1170000000      195.1150000000
H                92.7100000000       66.8380000000      195.0510000000
H                91.9570000000       65.1250000000      196.6330000000
H                94.6660000000       65.8890000000      196.1320000000
H                94.3850000000       64.6150000000      196.9860000000
H                93.7330000000       64.8530000000      194.2590000000
H                95.4810000000       63.2830000000      193.9530000000
H                96.0460000000       64.5900000000      194.6470000000
H                95.7520000000       63.2970000000      195.5130000000
H                93.1730000000       62.6020000000      194.2940000000
H                93.4300000000       62.5620000000      195.8560000000
H                92.2320000000       63.4180000000      195.2720000000
N                93.4860000000       67.2100000000      198.4910000000
C                93.6590000000       67.6300000000      199.8920000000
C                92.4950000000       68.4900000000      200.4320000000
O                92.6920000000       69.2940000000      201.3640000000
C                95.0180000000       68.3480000000      200.0410000000
O                95.4540000000       68.4500000000      201.4040000000
H                93.8540000000       67.7250000000      197.9090000000
H                93.6490000000       66.8300000000      200.4410000000
H                95.6880000000       67.8700000000      199.5280000000
H                94.9510000000       69.2380000000      199.6610000000
H                94.8210000000       68.7290000000      201.8810000000
N                91.2840000000       68.3330000000      199.8930000000
C                90.1660000000       69.1300000000      200.4110000000
C                89.4460000000       68.4300000000      201.5560000000
O                88.5510000000       68.9980000000      202.1830000000
C                89.1870000000       69.5230000000      199.2990000000
C                88.2330000000       68.5790000000      198.5080000000
C                87.0610000000       68.1230000000      199.2900000000
C                87.7890000000       69.2960000000      197.2550000000
H                91.0910000000       67.7930000000      199.2520000000
H                90.5490000000       69.9470000000      200.7680000000
H                88.6120000000       70.2000000000      199.6900000000
H                89.7270000000       69.9650000000      198.6250000000
H                88.7270000000       67.7720000000      198.2930000000
H                86.5120000000       67.5420000000      198.7410000000
H                87.3630000000       67.6370000000      200.0730000000
H                86.5390000000       68.8920000000      199.5690000000
H                87.1930000000       68.7230000000      196.7480000000
H                87.3240000000       70.1120000000      197.4970000000
H                88.5640000000       69.5140000000      196.7150000000
N                89.7650000000       67.1560000000      201.7920000000
C                89.1670000000       66.3590000000      202.8640000000
C                89.2810000000       67.0280000000      204.2390000000
O                90.3200000000       67.0040000000      204.8450000000
C                89.7470000000       64.9480000000      202.8750000000
C                91.1940000000       64.7030000000      203.2520000000
C                91.4040000000       63.2070000000      203.3310000000
C                92.1410000000       65.3570000000      202.2680000000
H                90.3440000000       66.7240000000      201.3260000000
H                88.2180000000       66.2970000000      202.6750000000
H                89.2020000000       64.4210000000      203.4810000000
H                89.6190000000       64.5810000000      201.9860000000
H                91.3880000000       65.1050000000      204.1130000000
H                92.3250000000       63.0220000000      203.5710000000
H                90.8130000000       62.8320000000      204.0030000000
H                91.2080000000       62.8070000000      202.4690000000
H                93.0570000000       65.1830000000      202.5360000000
H                91.9890000000       64.9940000000      201.3820000000
H                91.9850000000       66.3140000000      202.2560000000
N                88.1860000000       67.6560000000      204.6720000000
C                88.1830000000       68.3320000000      205.9680000000
C                87.2040000000       67.6730000000      206.9320000000
O                87.2150000000       68.0470000000      208.1170000000
C                87.8140000000       69.8080000000      205.7590000000
C                88.7950000000       70.6180000000      204.8880000000
C                88.3060000000       72.0300000000      204.5920000000
N                89.0830000000       72.7100000000      203.5560000000
C                88.9130000000       72.4660000000      202.2330000000
N                87.9930000000       71.5690000000      201.8320000000
N                89.6650000000       73.0620000000      201.3280000000
O                86.4910000000       66.7420000000      206.5420000000
H                87.4460000000       67.7020000000      204.2370000000
H                89.0680000000       68.2660000000      206.3600000000
H                86.9340000000       69.8510000000      205.3540000000
H                87.7480000000       70.2350000000      206.6270000000
H                89.6530000000       70.6660000000      205.3370000000
H                88.9390000000       70.1490000000      204.0510000000
H                87.3770000000       71.9920000000      204.3170000000
H                88.3390000000       72.5540000000      205.4080000000
H                89.6720000000       73.2890000000      203.7960000000
H                87.5160000000       71.1530000000      202.4140000000
H                87.8830000000       71.4120000000      200.9940000000
H                90.2750000000       73.6160000000      201.5730000000
H                89.5450000000       72.8970000000      200.4930000000
H                95.5627763857       56.0316310452      198.2016897034
H                97.0283019388       58.2969404651      196.3669419526
H                93.8464074496       58.3266945957      192.0982968120
H                96.8479669873       59.4624491783      190.6632609456
H                94.6369447634       72.2062610863      189.4929227135
