 362 
 
N               117.8931129701       55.9783829102      147.3145252728
C               117.6703446809       57.3520468558      146.8931652982
C               118.9451912910       58.1785586930      147.1239731148
O               119.3955624816       58.9344535739      146.2702026980
C               116.5208052176       57.9812992231      147.6661028685
H               117.1653050630       55.4920393575      147.8267090294
H               117.4663478287       57.3711214627      145.8128406320
H               116.3550808096       58.9940585054      147.3085896021
H               115.6082515850       57.4040669484      147.5321164633
H               116.7700257795       58.0228890361      148.7240000020
N               119.4981709408       58.0155032406      148.3245134570
C               120.6621369484       58.7692530257      148.7360825084
C               121.8540390143       58.4425827071      147.8320127379
O               122.6221926688       59.3184698593      147.4423942020
C               121.0121586587       58.4385137806      150.1838279555
C               119.9626062603       58.9651050876      151.1582678251
O               118.9803969876       59.5995581461      150.8197563198
N               120.2301656042       58.6649841463      152.4414951076
H               119.0179370467       57.4704545323      149.0318543405
H               120.4558891118       59.8432391849      148.6337096770
H               121.0869324047       57.3536501488      150.2833800692
H               121.9758947730       58.8875595134      150.4296281449
H               119.6198301105       59.0137174927      153.1631276472
H               121.0796183244       58.1969698566      152.7069725980
N               122.0093276260       57.1518189579      147.5572124192
C               123.0301993864       56.6941757634      146.6419901346
C               122.8696754779       57.3653856089      145.2766985968
O               123.8747075351       57.7127639741      144.6593066864
C               123.0104140017       55.1744619383      146.4974990347
C               123.4422634731       54.4934463390      147.7960227081
C               123.4537072437       52.9686391099      147.6540970182
N               123.8155740360       52.3565878955      148.9179304631
C               123.0893553448       51.5654338862      149.7000951461
N               121.9131636319       51.0754549604      149.3186213251
N               123.5652197546       51.2372425752      150.9023516275
H               121.3514538420       56.4715602444      147.9280861884
H               124.0103296094       57.0207957109      147.0167200833
H               121.9996367982       54.8810541490      146.2116914966
H               123.6860734276       54.9067785660      145.6834566793
H               124.4408101370       54.8436956094      148.0602906828
H               122.7527887369       54.7781374301      148.5908666444
H               122.4709348301       52.6307982257      147.3298048341
H               124.1843256266       52.6710011292      146.8973509176
H               124.6972098442       52.6888287000      149.2869222075
H               121.5087763929       51.2888347836      148.4227411166
H               121.3949259558       50.4614715919      149.9245796397
H               124.4621998004       51.5694033651      151.2171048463
H               123.0739570849       50.5804573601      151.4877325412
N               121.6305037772       57.5485927266      144.8400340512
C               121.3731059938       58.2355566501      143.5927666489
C               121.8560243033       59.6813665554      143.6742245634
O               122.4265891655       60.2042500269      142.7179291258
C               119.8896035158       58.2218538015      143.2385155384
C               119.3143595417       56.8744850530      142.8822846466
C               117.9285346608       56.7450179402      142.8670865916
C               120.0877267476       55.7804028345      142.5205386203
C               117.3260859085       55.5607583276      142.4864676247
C               119.4839400256       54.5924732013      142.1401939738
C               118.1057983202       54.4780584485      142.1152758789
H               120.8430077145       57.1537200642      145.3427360010
H               121.9670600507       57.7638556951      142.7992111706
H               119.3364285285       58.6410825150      144.0821563229
H               119.7498377371       58.8892197203      142.3817734799
H               117.3167080932       57.5914808884      143.1470188465
H               121.1641513354       55.8428068864      142.5173792237
H               116.2487574008       55.4832421033      142.4767289008
H               120.1003805977       53.7539699339      141.8526474637
H               117.6403789267       53.5529056463      141.8108256262
N               121.6394225536       60.3268885069      144.8197672584
C               122.1488787467       61.6756134064      144.9869890582
C               123.6781530278       61.6513405255      144.8931887834
O               124.3055496094       62.5026470855      144.2711588061
C               121.6885870368       62.2621209790      146.3311016620
O               120.2787747598       62.1602730457      146.3546693076
C               122.1442899685       63.7146347434      146.4678557617
H               120.9704088033       59.9747895771      145.4989011753
H               121.7806369915       62.3078386893      144.1684385933
H               122.1212158454       61.6430845941      147.1303325093
H               119.9639687672       62.5257162421      147.1900213208
H               121.9222188513       64.0881230261      147.4632106223
H               123.2102790298       63.7944317032      146.2820969656
H               121.6277828115       64.3256533683      145.7327991150
N               124.2723983525       60.6682565999      145.5677334937
C               125.7057788180       60.4632521488      145.4728360033
C               126.1170414793       60.2772052260      144.0105461456
O               127.1153936550       60.8368392541      143.5643050738
C               126.1346586951       59.2677342050      146.3119271389
H               123.7228695996       60.0099780710      146.1144325726
H               126.2182787069       61.3735073568      145.8089471207
H               127.2168233871       59.1742517358      146.2923409704
H               125.8012405482       59.4005153536      147.3372367826
H               125.6999347075       58.3617913935      145.8989270688
N               125.3214576445       59.5044138628      143.2736448770
C               125.5833373193       59.3295403183      141.8637251903
C               125.5821918748       60.7017037880      141.1824453877
O               126.4798790586       60.9906417869      140.3987920950
C               124.5495241752       58.4312910198      141.1848200361
C               124.5550736543       56.9820653303      141.6590242747
O               123.5432743075       56.4285118171      142.0544004981
N               125.7362196259       56.3547026536      141.5869540519
H               124.6013929915       58.9273780516      143.7070833326
H               126.6006655370       58.9361303702      141.7239112889
H               123.5547558526       58.8471465302      141.3531870129
H               124.7477284132       58.4349967144      140.1105610316
H               125.7904917278       55.3828772584      141.8472275528
H               126.5502688209       56.7846686195      141.1839704123
N               124.5912534334       61.5300248397      141.4987447504
C               124.5254194016       62.8539679232      140.9051176459
C               125.8470401215       63.5779929931      141.1681148970
O               126.4643829382       64.1337415771      140.2619169210
C               123.3196869890       63.6552676614      141.4222682678
C               122.0195549898       63.0164795635      140.9140437985
C               123.4415135028       65.1108138520      140.9720956951
C               120.7652492607       63.6850894692      141.4676089224
H               123.8199351315       61.2084177625      142.0782988592
H               124.4547441865       62.7560787461      139.8117536777
H               123.3440707597       63.6140865275      142.5146121283
H               122.0059339538       63.0603518973      139.8224499098
H               122.0074695523       61.9629759459      141.1962896173
H               122.6107005032       65.6991971357      141.3452425250
H               124.3627951244       65.5556191796      141.3385811343
H               123.4534382151       65.1737653639      139.8858759167
H               119.8856725722       63.1172309094      141.1764919519
H               120.8109153493       63.7242817566      142.5517640195
H               120.6552773743       64.6950127981      141.0838279957
N               126.2824383719       63.5703810728      142.4278341246
C               127.5789567203       64.1470036532      142.7515291084
C               128.6244032912       63.5837267920      141.7799484335
O               129.3731930371       64.3076964513      141.1178892728
C               127.9891183827       63.8345760306      144.1902092855
C               127.0247545357       64.4133873313      145.2267831112
C               127.5195153148       64.0916391763      146.6393380335
C               126.4665000264       64.4510991656      147.6837233541
N               126.9777355235       64.1737665571      149.0536927668
H               125.7448196891       63.0960050597      143.1478250315
H               127.5385885419       65.2331505557      142.5899346080
H               128.0451302238       62.7510017456      144.2994246916
H               128.9912320476       64.2406875958      144.3392448032
H               126.9519421393       65.4923758901      145.0917011732
H               126.0344486433       63.9842300046      145.0727610075
H               127.7557769391       63.0275167329      146.6893040644
H               128.4400471808       64.6481220414      146.8174537718
H               126.2164433749       65.5095139174      147.6018123106
H               125.5646277976       63.8601165171      147.5172253430
H               126.2735493563       64.4141525005      149.7655794395
H               127.2267624953       63.1773082469      149.1485937907
H               127.8271424217       64.7320742000      149.2275794792
N               128.6447911816       62.2584735012      141.7169709651
C               129.5597209811       61.5303916542      140.8733577867
C               129.4716417310       61.9165818315      139.4047241723
O               130.4623623439       61.8140320128      138.6772635999
H               128.0195572583       61.7162099653      142.3094238544
H               130.5931164839       61.7002699796      141.2010198870
H               129.3367333913       60.4666722542      140.9552783595
N               128.2883755795       62.3486241294      138.9871898943
C               128.0079769769       62.7517407855      137.6346264650
C               128.3703851321       64.2118873462      137.3887570162
O               128.5459816615       64.6122759888      136.2377278764
C               126.5382111332       62.5392690978      137.2668964434
C               126.0887275177       61.0736205355      137.2678799730
C               124.5847584319       61.0224805262      137.0036057334
C               126.8365426378       60.2360121765      136.2342439258
H               127.4922084618       62.2616092357      139.6119914757
H               128.6441158671       62.1742111160      136.9556052131
H               125.9387506606       63.1109854476      137.9784506004
H               126.3899985490       62.9674446410      136.2731865651
H               126.2910474754       60.6573884621      138.2579245770
H               124.2371592639       59.9939712706      136.9680793760
H               124.0379775271       61.5477252494      137.7825305640
H               124.3612996953       61.4957823421      136.0504505350
H               126.4210891040       59.2324298374      136.1909728393
H               126.7697419830       60.6701648778      135.2395406038
H               127.8910952631       60.1385016573      136.4797850795
N               128.4955546060       65.0058544376      138.4505122465
C               129.0858321793       66.3188548142      138.2872512324
C               130.5782559836       66.1180473206      138.0073576852
O               131.1740784282       66.7781568780      137.1637919287
C               128.8669291505       67.2728145800      139.4895694265
O               129.7092186114       66.9857702235      140.5698119924
C               127.3907359973       67.3215450786      139.8843563973
H               128.1919403878       64.6903485562      139.3651733435
H               128.6524345010       66.7847503215      137.3945835658
H               129.1775209891       68.2678137576      139.1484059909
H               129.5171660823       66.0897080133      140.9102397393
H               127.2707574726       67.9987233631      140.7254825795
H               126.7961214321       67.6865693688      139.0524378057
H               127.0260832661       66.3362189130      140.1606850192
N               131.1639067296       65.1659335446      138.7382899730
C               132.5166233543       64.7267060992      138.4555500000
C               132.5807981619       64.1782667429      137.0229156055
O               133.4185993563       64.5773228119      136.2232056904
C               132.9739422000       63.6634685490      139.4540285095
C               133.0198076185       64.1938314012      140.8935106002
C               133.2328664486       63.0170673875      141.8317849587
O               132.3040537831       62.3424569355      142.2517017185
N               134.5071036620       62.7682929690      142.1589697261
H               130.6369535495       64.6700928148      139.4491965338
H               133.1869730506       65.5940849737      138.4816740567
H               132.2932721904       62.8123098906      139.3995786114
H               133.9626840417       63.3195353390      139.1453878944
H               133.8197745109       64.9227885872      141.0019595038
H               132.0661062059       64.6583419702      141.1443497634
H               135.2693176054       63.2779798094      141.7475895151
H               134.7186964030       61.9600391573      142.7218480479
N               131.6380588409       63.2849982208      136.7016709624
C               131.6763617514       62.6745362529      135.3871066801
C               131.4766622623       63.7359985509      134.3055328664
O               132.0334956948       63.6182869647      133.2188954036
C               130.6517425272       61.5566534953      135.2407770139
H               131.1101721575       62.7933620075      137.4289471557
H               132.6824977586       62.2655134007      135.2157158123
H               130.9056599596       60.9570769719      134.3709754550
H               130.6805715414       60.9199755277      136.1212817551
H               129.6535388648       61.9617443425      135.0954577311
N               130.6955210685       64.7690833989      134.6267214191
C               130.5240090182       65.8965976080      133.7349271809
C               131.8862355159       66.5507305315      133.5012599727
O               132.3045720515       66.7604510885      132.3686212165
C               129.5434350624       66.9079443616      134.3376054394
O               129.4499598889       68.0201482102      133.4749262011
H               130.0314288186       64.6963047404      135.3985136856
H               130.1620321248       65.5729491630      132.7499503201
H               128.5726521396       66.4122737751      134.4555725008
H               129.9248334346       67.2160149016      135.3197215142
H               128.7220246990       68.5770810236      133.7788500589
N               130.9746914862       57.8060715139      131.8987620091
C               129.9834929496       58.8538343622      131.9141821531
C               128.7473288591       58.5210404979      132.7531072877
O               128.0788090350       59.4195031222      133.2406637738
C               129.5228494543       59.2798914924      130.4997412407
C               130.7019676775       59.8360209770      129.7092189795
C               128.8532561448       58.1425660352      129.7331957225
H               130.7116577504       56.9179688749      131.4901516309
H               130.4600174910       59.7213416824      132.3864873706
H               128.7860400181       60.0751171993      130.6561900151
H               130.3658720341       60.1488345830      128.7254799183
H               131.1409609341       60.6861944832      130.2258828094
H               131.4671880829       59.0723220840      129.5858696452
H               128.4880985378       58.5114073512      128.7784416779
H               129.5563943875       57.3372639356      129.5323398857
H               128.0124836815       57.7348825587      130.2889280534
N               128.4066268259       57.2255246131      132.8413178275
C               127.2909369329       56.7974078607      133.6466170888
C               127.7350207159       56.3023147607      135.0182984112
O               128.8667437338       56.4900784734      135.4534853088
H               128.9975857410       56.5030853809      132.4526244007
H               126.6419974911       57.6681101755      133.7885954397
H               126.7418772347       55.9951376674      133.1499875966
N               126.7629335226       55.7019632238      135.7170428776
C               126.9884095886       55.1507929910      137.0340226990
C               127.6378509141       53.7607216443      137.0548241861
O               128.3441692013       53.4295191966      137.9996511287
C               125.6584493885       55.0460905746      137.7774229547
H               125.9619449609       55.3539098222      135.2054412949
H               127.6794536032       55.8223495261      137.5554469271
H               125.8227783128       54.6230964762      138.7635451473
H               125.2015679181       56.0267701313      137.8676227444
H               124.9914410914       54.3856115454      137.2285683432
N               121.5041890819       63.1482914450      130.9218768262
C               121.7944930423       63.1213804386      132.3413370346
C               121.1466902620       64.3075524632      133.0435062552
O               120.5999902325       64.1685093368      134.1381657137
C               123.3018722122       63.1299434269      132.5969673989
C               124.0216867769       61.8441377509      132.1653078227
C               125.5250092576       62.0331509861      132.3675786249
C               123.5380319715       60.6274973146      132.9494922043
H               122.2925942416       63.1330142645      130.2811623706
H               121.3386729662       62.2246660744      132.7778959561
H               123.7329421668       63.9827031910      132.0685312082
H               123.4624634782       63.2811437271      133.6662971386
H               123.8326608498       61.6729482442      131.1014134066
H               126.0647091536       61.1163291634      132.1437045673
H               125.9074616904       62.8252127858      131.7283483548
H               125.7398408745       62.2977578140      133.4004379276
H               124.1235783984       59.7533175355      132.6768921258
H               123.6568545158       60.7917665371      134.0171452800
H               122.4921922207       60.4089972558      132.7511467334
N               118.6976230268       64.1436680676      136.1211939288
C               118.9723157400       64.8620873560      137.3539067536
C               117.7259933931       65.6257957675      137.7826949868
O               117.2445841516       65.5039314254      138.9054094749
C               120.1671691034       65.8152389746      137.1848364185
C               120.2269755739       66.8103828090      138.3430893366
C               121.4682609090       65.0212489050      137.1021933200
H               119.3075476454       64.3370470975      135.3321057573
H               119.1853745270       64.1389230327      138.1538028020
H               120.0153371059       66.3711113333      136.2547338394
H               121.1371691432       67.3998626753      138.2786090486
H               119.3814700106       67.4939278598      138.3190689880
H               120.2191113452       66.2883060181      139.2971002458
H               122.3072503228       65.7000951440      136.9744666787
H               121.6182722711       64.4577841147      138.0194706839
H               121.4499174500       64.3330597444      136.2629867539
N               115.1284509482       63.3595562749      139.1018797860
C               115.5434990060       62.7212410319      140.3349213675
C               115.3711164392       63.6673544456      141.5186126061
O               114.8883971992       63.2838167380      142.5778272297
C               117.0087000373       62.2869502385      140.2491209151
C               117.2399289135       61.0711718094      139.3401075712
C               118.7298839617       60.9447946022      139.0250468255
C               116.7374466345       59.7848098419      139.9904858090
H               115.8081162806       63.3909294379      138.3475659165
H               114.8957769717       61.8575703167      140.5292193843
H               117.5815478176       63.1390345281      139.8791518930
H               117.3592845625       62.0483277094      141.2549293905
H               116.7025880250       61.2281964055      138.4001334810
H               118.9137368053       60.0726031365      138.4025166343
H               119.0878279650       61.8227129256      138.4929652422
H               119.3100435998       60.8356889406      139.9386853338
H               116.9089734653       58.9373259774      139.3317185332
H               117.2676904865       59.6006496216      140.9222034379
H               115.6731636248       59.8343388584      140.2029286455
N               115.8202963878       64.9118507684      141.3383146110
C               115.7099169612       65.8594047435      142.4295752171
C               114.2472114158       65.9426397366      142.8634036636
O               113.9109157012       65.8327367257      144.0358756433
C               116.2569840573       67.2718866905      142.0984071772
O               115.4313644382       67.9892878103      141.2200149602
C               117.7034828200       67.2017007996      141.6073150202
H               116.2428842577       65.1876534736      140.4597347733
H               116.2666557651       65.4725863615      143.2931816656
H               116.2159490233       67.8421267360      143.0348285278
H               115.3712759805       67.5327094550      140.3627278435
H               118.0881246051       68.2118145706      141.4957959950
H               118.3217450940       66.6625242806      142.3164708917
H               117.7567524168       66.7055614076      140.6426555927
N               113.0235970518       62.6178220869      144.6590158227
C               113.4139069266       62.4587962612      146.0442632112
C               112.7629885634       63.5416692036      146.9097469165
O               112.3209521842       63.2574155645      148.0199283124
C               114.9217227713       62.3440872310      146.2508367757
C               115.7239879770       63.5974858840      145.9199798080
C               117.1975547893       63.3440823897      146.2708538264
N               117.9938069520       64.5516942365      146.2155773342
C               118.0855869241       65.4538779169      147.1957805569
N               117.6147815359       65.2158619875      148.4039381270
N               118.7518026736       66.5908658909      146.9478758250
H               113.7165157227       62.8517791350      143.9557691343
H               112.9546207673       61.5234951308      146.4013388089
H               115.0842582569       62.1134024521      147.3061807024
H               115.2838841428       61.5097869022      145.6486747604
H               115.6100491500       63.8546033060      144.8672831859
H               115.3541707849       64.4296693855      146.5217662052
H               117.2425799362       62.9328839694      147.2797921317
H               117.6414198419       62.6234347553      145.5834051838
H               118.3431065049       64.8131546971      145.3061383595
H               116.9640293283       64.4354610972      148.6479373647
H               117.6343572291       65.9459172954      149.0962410130
H               119.1978419844       66.7579614229      146.0624459885
H               118.8883575242       67.2658742203      147.6800409368
H               118.0397985859       55.4624845074      146.5917997591
H               132.4538147363       66.8159744301      134.2806825172
H               131.6930154808       58.0789312002      131.4301915977
H               127.4845099806       53.1258210306      136.2976004617
H               121.0067034751       62.4308364694      130.7033215036
H               121.1624047059       65.2113295894      132.6157914409
H               118.7640437917       63.2582590429      136.2682964133
H               117.2758302141       66.2480399425      137.1422534993
H               114.4140427709       62.9276106353      138.7656597382
H               113.5310697293       66.0909814689      142.1813950014
H               112.6632711176       61.8498577891      144.3583564501
H               112.6977977399       64.4803067988      146.5710588278
