 50 
 
N               191.1355768162       74.3203977521      110.3682976172
C               191.1885368078       74.9097879006      111.6894886945
C               192.3675772133       75.8972671385      111.7243701406
O               192.9806834308       76.1586538426      110.6955126298
C               191.1910564026       73.8307961886      112.7911789877
C               190.3174120497       72.6589685270      112.3370931388
O               190.7796788109       71.6213555020      111.8684827686
N               189.0036064829       72.8384070520      112.5068279157
H               191.8967783239       73.7249332306      110.0605983405
H               190.2660317472       75.5086762317      111.7548552682
H               192.2030672226       73.4578154796      112.9427257599
H               190.7885084425       74.2278850424      113.7213115654
H               188.3711423101       72.1193599791      112.1859179750
H               188.6206599537       73.7331101470      112.7642442250
N               192.6318232048       76.5059769144      112.8965125964
C               193.3537714680       77.7676244039      112.9090913159
C               194.7495075441       77.7553750257      112.2694212266
O               195.2441887820       78.8345974599      111.9583829615
C               193.4181773171       78.3925038470      114.3220588178
C               193.3632167589       77.4238616136      115.5064614076
C               194.4646578290       76.3613350579      115.4848871592
C               194.2254696432       75.2451685979      116.4956289493
N               194.2605182202       75.7634484522      117.8936658794
H               191.9876245844       76.3644210027      113.6609788161
H               192.8181343910       78.4747339618      112.2556947268
H               194.3370363470       78.9795514850      114.3616831245
H               192.5858461161       79.0905454932      114.4214345006
H               193.4566390277       78.0510741392      116.3942349504
H               192.3850957596       76.9400217813      115.5369636466
H               194.5125343049       75.8990867358      114.4998052352
H               195.4365390404       76.8262804595      115.6530042048
H               193.2529974426       74.7833140971      116.3156328518
H               194.9981763592       74.4856585714      116.3729542465
H               194.1381777675       74.9912466555      118.5637648488
H               195.1642954450       76.2221476395      118.0767191013
H               193.5054422943       76.4513324381      118.0237442912
N               195.4016670466       76.6002087043      112.1164614744
C               196.7289870171       76.5336083608      111.5521692052
C               196.7695523775       75.7936588490      110.2170452942
O               197.8454027561       75.4971873374      109.6946975251
C               197.6864145618       75.8397900255      112.5205594283
C               197.1560344780       74.4281457447      112.9048151112
O               196.1617248187       74.0096097265      112.2642055808
O               197.7299424080       73.8368110579      113.8302898830
H               195.0166874930       75.6943932460      112.3533398652
H               197.0596121150       77.5639180718      111.3664269688
H               198.6573152766       75.6901911197      112.0431959971
H               197.8387696616       76.4216101836      113.4300775525
H               190.4039065518       73.8007544760      110.3002572625
H               195.9171296780       75.5445807372      109.7573327365
