 290 
 
N                24.7193168628       33.8324183571       52.9823121018
C                23.4616195736       33.2641186058       52.5274596958
C                23.5262989351       33.0215936861       51.0114237165
O                23.5351003499       33.8975187205       50.1611536407
C                22.2339282846       34.1063109230       52.9542304176
C                22.2364530999       35.5115658258       52.3459960938
C                22.1744106809       34.1695756893       54.4795232276
C                20.9213067946       36.2438996150       52.5946083343
H                25.1028549540       34.6071735590       52.4632792265
H                23.3840750425       32.2913900768       53.0270973446
H                21.3540766626       33.5735549595       52.5801393453
H                23.0652258806       36.0889378974       52.7618817845
H                22.3935080146       35.4257929416       51.2718897844
H                21.2246958270       34.5767908058       54.8105699552
H                22.3161633912       33.1875385704       54.9228476030
H                22.9664838747       34.8142075411       54.8567177135
H                20.9003254368       37.1884099809       52.0566985003
H                20.0859017545       35.6402370191       52.2501259503
H                20.7823632687       36.4608457178       53.6502094156
N                21.7404759784       31.9065073897       48.0669909395
C                20.6072374661       31.7813878881       47.1569616369
C                20.9003954460       32.7834473490       46.0360472469
O                21.2575465817       32.4550022569       44.9118043724
C                19.2487267013       32.0418334489       47.8256452012
C                18.7547199173       30.9080403659       48.7319336133
C                19.2509499945       30.9946872003       50.1838763844
C                18.1610898228       30.4873287935       51.1267290017
N                18.6264459415       30.4598751023       52.5421537606
H                22.1289875831       32.8310330028       48.1966327743
H                20.6226597917       30.7697063024       46.7362472911
H                19.2972164182       32.9619045779       48.4092557373
H                18.5259167558       32.1845075020       47.0211420101
H                17.6659353209       30.9506593361       48.7331590200
H                19.0476427922       29.9488838549       48.3071961253
H                20.1529856020       30.3918924150       50.2821048851
H                19.4938805319       32.0295920258       50.4271234767
H                17.2872446945       31.1377820552       51.0655773012
H                17.8690282045       29.4779863990       50.8372423174
H                17.8720617474       30.1311419213       53.1633256311
H                19.4300894146       29.8213159458       52.6361082796
H                18.9103446141       31.4028772924       52.8470612512
N                20.8990401735       34.0586236882       46.4464925046
C                21.2834815235       35.1529926800       45.5712407019
C                22.6530375383       34.8481805804       44.9573259555
O                22.8793772959       35.0734293877       43.7776413921
C                21.2628394221       36.4788232020       46.3538088728
C                20.7108319502       37.6756073597       45.6133393421
C                21.1350960277       38.9559452504       45.9567392378
C                19.7176377095       37.5512704286       44.6538806588
C                20.6111227158       40.0724582272       45.3350688040
C                19.2082220394       38.6546544882       44.0000929049
C                19.6483594355       39.9285034649       44.3381472433
O                19.1426299904       41.0335181807       43.7364402662
H                20.4382362153       34.3036496981       47.3127290082
H                20.6013872289       35.1890512655       44.7144836500
H                20.6316347482       36.3449468407       47.2377687620
H                22.2720811950       36.7118093463       46.6965401773
H                21.8648198172       39.0937157032       46.7414117682
H                19.3065014893       36.5853026065       44.4181552457
H                20.9347557439       41.0639961830       45.6117463411
H                18.4541089549       38.5465912543       43.2336393781
H                18.4944394114       40.7627811862       43.0652687980
N                15.8937771442       36.0780257937       36.9604462558
C                16.6825251379       36.5855878264       38.0647668589
C                15.9846909587       37.7417446506       38.7755769752
O                16.0711359294       37.8670430758       40.0011794581
C                18.0378364046       37.0597727341       37.5493751105
H                16.3590141622       36.0498277476       36.0550696949
H                16.8171872428       35.7920774433       38.8130025042
H                18.6498122180       37.4165356842       38.3725956284
H                18.5422730486       36.2377877481       37.0500740025
H                17.8890665623       37.8675618953       36.8382661497
N                15.3542734877       38.6078630402       37.9970219240
C                14.6527999211       39.7600292790       38.5173626665
C                13.4154066352       39.2912712862       39.2738460711
O                13.0473624129       39.8623264009       40.3003884976
C                14.2582464244       40.7397982918       37.3968588089
C                15.5099184379       41.3310035566       36.7396119056
C                13.3738914860       41.8546176739       37.9511286267
C                15.1886862619       42.0793114487       35.4510909168
H                15.3400545395       38.4573480357       36.9929643219
H                15.2955598119       40.2718479069       39.2471368690
H                13.6954880014       40.1630463981       36.6544462137
H                15.9959685091       42.0065464164       37.4453417562
H                16.1979908805       40.5190521586       36.5094841566
H                13.0619940414       42.5216756886       37.1540533787
H                12.4832590355       41.4541347470       38.4264741933
H                13.9189188526       42.4330575289       38.6937959320
H                16.1055429401       42.4017538032       34.9656592669
H                14.6450151411       41.4272081617       34.7712547571
H                14.5813881949       42.9582028682       35.6458992401
N                12.7867594203       38.2466566010       38.7518601359
C                11.6380767767       37.6439748137       39.3882653520
C                12.0672263454       36.9137840118       40.6617597169
O                11.3650907767       36.9409384595       41.6682971368
C                10.9514468786       36.6597801101       38.4480760774
C                10.2244505258       37.2831238888       37.2833076309
C                 9.5805857532       36.4354166279       36.3854168341
C                10.1505092920       38.6526426830       37.0708793545
C                 8.8658493146       36.9424836167       35.3166500234
C                 9.4395232368       39.1637905859       35.9965729606
C                 8.7906759108       38.3131523261       35.1202423883
H                13.0562481106       37.8860568639       37.8400348387
H                10.9399269108       38.4289571746       39.7094493106
H                11.7145953216       35.9717685165       38.0745085987
H                10.2415992929       36.0731119938       39.0393290453
H                 9.6457050230       35.3662520032       36.5297978105
H                10.6507929043       39.3393473527       37.7358396964
H                 8.3833984782       36.2675645782       34.6254949469
H                 9.3972509158       40.2326388495       35.8445850231
H                 8.2496940930       38.7128863231       34.2766632582
N                13.2299362830       36.2762594365       40.5987035356
C                13.7811576233       35.6543499902       41.7776178400
C                14.0963253810       36.7517328084       42.7924561152
O                13.8668891382       36.5761333278       43.9830085967
C                15.0401866780       34.8396566945       41.4899814107
C                14.8307749638       33.6233650522       40.5791257337
C                16.1667064631       32.9166299762       40.3582354108
C                13.8239004952       32.6356077701       41.1569471383
H                13.7099251055       36.1519895893       39.7106401359
H                13.0164165039       35.0189450335       42.2445320313
H                15.7739134578       35.5102960751       41.0385520873
H                15.4300030735       34.4988810880       42.4508585855
H                14.4539080944       33.9792961230       39.6181982776
H                16.0443199634       32.0887296620       39.6647275212
H                16.9058433727       33.6038818094       39.9556834241
H                16.5418091558       32.5205936488       41.2981539913
H                13.7763510674       31.7528392363       40.5250906940
H                14.1181660707       32.3235120352       42.1563440281
H                12.8317938294       33.0743735294       41.2035214294
N                14.6088015962       37.8886394722       42.3131020633
C                14.8617719926       39.0159385571       43.1922901373
C                13.5312154809       39.4882649489       43.7848743870
O                13.4118497316       39.7317061449       44.9794321925
C                15.5644633178       40.1645444762       42.4296259626
O                16.8513548585       39.7809666027       42.0035831212
C                15.7209542350       41.3935849469       43.3171483459
H                14.9805244283       37.9284187950       41.3651606019
H                15.4956054877       38.7087504280       44.0366203466
H                14.9420778817       40.4248323953       41.5618787874
H                16.7737267050       39.0999486972       41.3136855769
H                16.2376070908       42.1775762560       42.7703625756
H                14.7487900307       41.7590546495       43.6325587870
H                16.3052184811       41.1458853333       44.1993399189
N                12.5324494427       39.5847462650       42.9044664302
C                11.2254763663       40.0963692865       43.2521747447
C                10.5852855908       39.2398670354       44.3403998575
O                10.1267609396       39.7561549701       45.3573990090
H                12.7249050247       39.5095011305       41.9066291371
H                11.2897307885       41.1184789254       43.6426899434
H                10.6074809024       40.0856846003       42.3532108491
N                10.5747276386       37.9344448633       44.0935760103
C                10.0445962912       36.9405846981       45.0071842345
C                10.8821229430       36.9030021618       46.2919915506
O                10.3507799315       36.9326086580       47.3990416525
C                10.0193123962       35.5823446276       44.3030647981
C                 9.0996167417       35.5839836986       43.1227329814
N                 9.0585166940       34.5238911303       42.2620575897
C                 8.2042454152       36.5357539829       42.7106834903
C                 8.1633811791       34.8262025941       41.3600848302
N                 7.6145003822       36.0383638248       41.5832969368
H                10.9392081811       37.5740180174       43.2126491017
H                 9.0275457266       37.2234670469       45.3146949554
H                11.0225927261       35.3125095364       43.9655218093
H                 9.7009723362       34.8133453577       45.0101045719
H                 7.9417684606       37.4944675396       43.1044543112
H                 7.8883459615       34.1931881609       40.5415147419
H                 6.9019845053       36.5009817498       41.0416089017
N                12.2009595145       36.8144357013       46.1225721821
C                13.1038406497       36.9167151660       47.2474968386
C                12.8310696797       38.1636312768       48.0969148960
O                13.1299400266       38.1584751992       49.2779206630
C                14.5695521709       36.9651530618       46.7778182346
C                15.5081235763       36.8228433230       47.9425889332
C                15.8885147528       35.5563944775       48.3741654888
C                15.9672852955       37.9364520497       48.6359882758
C                16.6892426150       35.4040924240       49.4918673499
C                16.7553066483       37.7841727897       49.7635799697
C                17.1104871322       36.5181924370       50.1975446353
H                12.6340376991       36.8326346894       45.2020612455
H                12.9650074083       36.0525726779       47.9143629960
H                14.7257287660       36.1536497578       46.0670392172
H                14.7186098019       37.9148089177       46.2617359675
H                15.5430017981       34.6859968934       47.8354653144
H                15.6895273310       38.9303281855       48.3101567297
H                16.9678787429       34.4138414017       49.8183129943
H                17.0738238773       38.6611246968       50.3101190668
H                17.7032054809       36.4142022672       51.0928545619
N                12.3084264922       39.2284162631       47.4637533393
C                12.0316356418       40.4839312661       48.1358762352
C                10.6651517923       40.4220959792       48.8369345693
O                10.4892080912       40.8383165742       49.9742445086
C                12.0743295597       41.6521737126       47.1476795109
C                12.3295464421       42.9795104969       47.8496068735
O                12.7511540905       43.0610567512       48.9897516508
N                12.1967560893       44.0629444125       47.0501420166
H                12.3390418652       39.2689220650       46.4521812633
H                12.7724221411       40.6634207577       48.9284445608
H                12.9041709684       41.4897012572       46.4537926518
H                11.1466134617       41.7038316819       46.5766544368
H                12.2014666086       44.9649202547       47.5045758435
H                11.6722242637       43.9886240659       46.1958701539
N                 9.7129482632       39.7977064234       48.1326520342
C                 8.3479191335       39.7653183442       48.6130163372
C                 8.2519232359       38.9213971284       49.8859594050
O                 7.7171956543       39.3504899261       50.9061950435
C                 7.4009543623       39.1944324837       47.5565094535
C                 7.2226073771       40.1198691683       46.3526993658
C                 6.5369460141       41.4317733335       46.7076939158
O                 5.9957166956       41.6523387628       47.7778079933
N                 6.4892460192       42.3207559192       45.6903421385
H                 9.8883849201       39.5513271643       47.1624636182
H                 8.0465851990       40.7847884711       48.8985571101
H                 7.8016378829       38.2326974996       47.2297910029
H                 6.4339635002       39.0356427937       48.0377599397
H                 8.1933302677       40.3301564767       45.9039514974
H                 6.5993670282       39.6159141041       45.6109025497
H                 7.0396245007       42.1960940175       44.8600047146
H                 6.1422288504       43.2456523143       45.8981584234
N                 8.7312136522       37.6719318044       49.8149618518
C                 8.5514358538       36.7990052657       50.9618286515
C                 9.0829682358       37.3751846230       52.2876196462
O                 8.4144217312       37.1997067413       53.3071707679
C                 9.0739321183       35.3577691055       50.7813790816
C                 8.2626740263       34.4346947915       51.6932306163
C                 8.9459884912       34.8721541729       49.3407723878
H                 9.2909589939       37.3763584364       49.0216315680
H                 7.4658238078       36.7425175752       51.1397463577
H                10.1236617236       35.3391086578       51.0927125220
H                 8.6764423729       33.4305057174       51.6926848830
H                 8.2483480705       34.8202438240       52.7098616817
H                 7.2339011227       34.3798298884       51.3429694137
H                 9.1792790292       33.8125550804       49.2982529655
H                 7.9272072821       35.0176790524       48.9925349718
H                 9.6225734645       35.4060202397       48.6840030294
N                10.2899930127       37.9554595694       52.3396633226
C                10.7741530021       38.5308130961       53.5819486601
C                 9.9825914592       39.7484203406       54.0630551243
O                 9.9859115517       40.0596600842       55.2480239974
C                12.2231656157       38.9607956269       53.3075845954
C                12.3485357468       39.0120279606       51.7873592303
C                11.2142673808       38.1469658723       51.2404702948
H                10.7079284987       37.7988340001       54.3957147781
H                12.4073425484       39.9362832571       53.7553117262
H                12.9179416248       38.2431297922       53.7376619197
H                12.2179567062       40.0284253881       51.4163832344
H                13.3078834326       38.6446155044       51.4363883191
H                10.7291907871       38.6573347023       50.4154182451
H                11.5721202912       37.1827128925       50.8727542511
N                 9.4347639544       40.5074913201       53.1048055050
C                 8.6463276321       41.6710535344       53.4303619892
C                 7.3074833505       41.2763961341       54.0653989688
O                 6.7876373635       41.9686303840       54.9431386790
C                 8.3780698680       42.5301375850       52.1921241454
C                 9.6224316600       43.2399663256       51.6776267793
C                 9.2847918358       44.0858637488       50.4140353676
O                 9.0725632938       43.4800948762       49.3452878109
O                 9.2569231634       45.3266154370       50.5632035170
H                 9.4216467004       40.2003402422       52.1439718047
H                 9.1880226918       42.2574223378       54.1860242656
H                 7.9734980786       41.8983038487       51.3967190356
H                 7.6170739165       43.2719188550       52.4542252568
H                10.0225072086       43.9066480332       52.4443348635
H                10.3729148870       42.5050221418       51.3929868360
N                 6.7379237206       40.2095768206       53.5230738281
C                 5.5442397196       39.6008761962       54.0479562500
C                 5.7655033362       39.0187396719       55.4982703050
O                 4.7202253540       38.9007978039       56.1695220928
C                 5.1001583844       38.4706518929       53.1333279817
C                 4.6289637956       38.8839087642       51.7613008913
C                 4.2175105093       37.8942055999       50.8712094148
C                 4.5643383596       40.2092639851       51.3484423521
C                 3.7457677383       38.2172628651       49.6122049126
C                 4.0886354107       40.5359719345       50.0889308340
C                 3.6749313442       39.5432715676       49.2199480250
O                 6.9154978994       38.7041212558       55.8354683609
H                 7.2372672067       39.6913649898       52.8144240168
H                 4.7654505940       40.3688419000       54.1588396686
H                 5.9498397363       37.7817980077       53.0510643608
H                 4.2987485624       37.9369584474       53.6545759333
H                 4.2676181648       36.8589415070       51.1792861172
H                 4.8958734474       41.0037194811       52.0030817159
H                 3.4322272468       37.4319186960       48.9402369244
H                 4.0657442230       41.5726327649       49.7845407209
H                 3.3106448677       39.8099650293       48.2402398951
H                24.6239879645       34.1384957377       53.8232812084
H                23.5652833869       32.0878323242       50.6556570351
H                21.4978720664       31.6306684042       48.8886089748
H                23.3793036375       34.4585516820       45.5236534885
H                15.6392465837       35.2329118961       37.1365050358
