 62 
 
N                29.4003767779       28.0308272175       18.5569871488
C                29.0144091391       29.2247762354       17.8451264605
C                27.5135695847       29.5404513428       17.8013585795
O                27.1345441798       30.5410534186       17.2007716982
C                29.5492684114       29.2178028230       16.4072102361
O                29.0481999232       28.1788325330       15.5984707285
H                29.3762201816       27.1482315233       18.0627460755
H                29.4675154033       30.0747004612       18.3746274220
H                29.2427225683       30.1676004891       15.9554296416
H                30.6464430373       29.1736791137       16.4236999025
H                28.6963040607       27.4493170273       16.1434950907
N                26.6626604187       28.6813281139       18.3626297859
C                25.2420485455       28.9667505851       18.2789514285
C                24.8562679701       30.0766056537       19.2612213870
O                25.3354147967       30.1393623337       20.3890241196
C                24.4371414103       27.6754999644       18.5136045042
C                24.4172656839       27.2563248492       19.9789335905
C                23.0058822315       27.8303429598       18.0059895100
H                26.9568060791       27.9333365160       18.9790234662
H                25.0639298736       29.3219398392       17.2587596794
H                24.9463183864       26.9012965145       17.9286541674
H                23.8877080586       26.3125100146       20.0784616243
H                25.4191807886       27.1361681686       20.3778264796
H                23.9004296906       28.0046001783       20.5717352066
H                22.4811293949       26.8806338331       18.0780399050
H                22.4757993680       28.5514881431       18.6237027978
H                22.9821102892       28.1547224884       16.9684034247
N                23.9458815126       30.9748081687       18.8564846746
C                23.4160096497       31.9096883223       19.8432847980
C                22.7635908131       31.1157413010       20.9760714874
O                22.0875156000       30.1204428699       20.7577900243
C                22.3979377427       32.7527203902       19.0658841588
C                22.9357656629       32.6975537164       17.6377904156
C                23.4328881397       31.2567993510       17.5278695937
H                24.2352901090       32.5191467197       20.2407504244
H                21.4148079578       32.2824261692       19.1168114314
H                22.3183517350       33.7631629010       19.4589406767
H                22.1801367165       32.9315874772       16.8923096371
H                23.7721260575       33.3865964016       17.5214341779
H                22.6044398074       30.5828465325       17.2913802039
H                24.2257137990       31.1504199870       16.7876972280
N                22.9705301948       31.6053697297       22.2048449715
C                22.3660888940       31.0300729970       23.3833501524
C                21.3913679574       32.0165978432       24.0341596617
O                21.3446564483       33.1994614879       23.7282941249
C                23.4410246943       30.6706370061       24.4178297518
C                24.4478415634       29.6043220908       23.9654547975
C                25.3673391776       29.2826741576       25.1408220017
C                23.7560324069       28.3304625212       23.4873707914
H                23.5128760533       32.4450342669       22.3354382931
H                21.8036905817       30.1548333719       23.0461328909
H                23.9679129759       31.5952054525       24.6649674713
H                22.9511900699       30.3379810804       25.3336269029
H                25.0409106540       29.9956152458       23.1333382874
H                26.0931466727       28.5348547647       24.8427342383
H                25.8912306798       30.1660233211       25.4952180461
H                24.7966080982       28.8895312626       25.9784460306
H                24.4933991897       27.5872168455       23.1947468160
H                23.1275997490       27.9176596866       24.2718419782
H                23.1375572527       28.5273483773       22.6166372884
H                30.2500819685       28.1125348995       18.8421624349
H                20.7580915406       31.7011211207       24.7408671100
