100
Properties=species:S:1:pos:R:3 pbc="F F F"
N      59.08400000      23.78300000      24.60000000 
C      58.91000000      24.24500000      25.95100000 
C      59.17800000      23.10000000      26.90800000 
O      58.53100000      22.04900000      26.81200000 
C      57.47800000      24.72000000      26.14900000 
C      56.94800000      25.64800000      25.07900000 
S      57.53300000      27.40900000      25.21500000 
C      56.39000000      28.08100000      23.90800000 
H      58.28900000      23.59300000      24.03300000 
H      59.61300000      25.03800000      26.13600000 
H      56.84100000      23.84900000      26.15900000 
H      57.39900000      25.18900000      27.11900000 
H      57.19300000      25.31700000      24.09100000 
H      55.87800000      25.70300000      25.16500000 
H      56.34900000      29.15000000      24.00800000 
H      56.75500000      27.81400000      22.93400000 
H      55.41500000      27.65600000      24.07100000 
N      52.89300000      34.37200000      25.31800000 
C      53.16200000      32.95100000      25.23600000 
C      54.64800000      32.79100000      25.42400000 
O      55.44500000      33.06600000      24.51700000 
C      52.65000000      32.39200000      23.91600000 
C      51.13900000      32.57400000      23.80700000 
C      53.05100000      30.93500000      23.75300000 
C      50.32600000      31.67400000      24.72400000 
H      53.32500000      34.95500000      24.63700000 
H      52.64900000      32.48800000      26.05100000 
H      53.10100000      32.96900000      23.12900000 
H      50.89500000      33.60900000      23.99700000 
H      50.85300000      32.37300000      22.78300000 
H      52.58100000      30.51600000      22.87500000 
H      54.11900000      30.83400000      23.64200000 
H      52.73800000      30.35500000      24.60600000 
H      49.28900000      31.98300000      24.73800000 
H      50.35900000      30.64900000      24.38400000 
H      50.68800000      31.69500000      25.74200000 
N      55.02900000      32.38800000      26.63500000 
C      56.39600000      32.28700000      27.04500000 
C      56.58700000      30.99100000      27.77500000 
O      55.62400000      30.28800000      28.10800000 
C      56.78900000      33.41500000      27.98000000 
O      56.60300000      34.63600000      27.27600000 
H      54.34100000      32.12300000      27.29800000 
H      57.01700000      32.31500000      26.17100000 
H      56.16400000      33.37600000      28.86000000 
H      57.81900000      33.30000000      28.27800000 
H      56.78600000      35.39600000      27.82000000 
N      57.82500000      30.66300000      28.13000000 
C      58.05900000      29.39900000      28.78700000 
C      57.31600000      29.31100000      30.09000000 
O      56.93400000      28.20500000      30.49900000 
C      59.54800000      29.16300000      28.96600000 
H      58.60100000      31.20700000      27.84200000 
H      57.65000000      28.61400000      28.18100000 
H      59.71100000      28.21200000      29.45000000 
H      60.02300000      29.13800000      27.99600000 
H      60.00400000      29.94200000      29.55800000 
N      57.09800000      30.42300000      30.78800000 
C      56.40900000      30.35800000      32.04700000 
C      54.93900000      30.07200000      31.91000000 
O      54.35700000      29.58200000      32.88900000 
C      56.58400000      31.64400000      32.84000000 
C      57.97900000      31.78800000      33.39200000 
C      58.29200000      30.85700000      34.54400000 
O      57.35100000      30.19600000      35.06200000 
O      59.49900000      30.83300000      34.92500000 
H      57.45400000      31.29300000      30.46500000 
H      56.80300000      29.54700000      32.62700000 
H      56.32200000      32.48800000      32.21500000 
H      55.89200000      31.61600000      33.66400000 
H      58.72100000      31.62800000      32.62400000 
H      58.12800000      32.79200000      33.75900000 
N      54.28800000      30.42900000      30.80000000 
C      52.83800000      30.43600000      30.80000000 
C      52.26700000      29.80200000      29.54700000 
O      51.97300000      30.48800000      28.55400000 
C      52.24700000      31.82100000      30.89300000 
C      52.83700000      32.80800000      31.88100000 
C      52.21900000      34.11800000      31.44300000 
N      52.39000000      35.24000000      32.34000000 
C      51.75600000      36.37200000      32.11800000 
N      51.02800000      36.50600000      31.01700000 
N      51.84600000      37.39100000      32.95800000 
H      54.79000000      30.76800000      30.01100000 
H      52.53200000      29.86600000      31.64900000 
H      52.29000000      32.26300000      29.91400000 
H      51.20400000      31.69100000      31.13300000 
H      52.57200000      32.56600000      32.89900000 
H      53.90900000      32.85200000      31.81000000 
H      52.62200000      34.37100000      30.47300000 
H      51.15900000      33.95500000      31.31800000 
H      52.96100000      35.15400000      33.14900000 
H      50.97800000      35.79800000      30.33400000 
H      50.46600000      37.30900000      30.88100000 
H      52.05500000      37.21000000      33.91200000 
H      51.44600000      38.26600000      32.72100000 
H      59.54453325      24.39669822      24.12959207 
H      59.87732481      23.19387647      27.61661274 
H      52.00872411      34.51581193      25.23212634 
H      52.12041769      28.81353034      29.50903471 
