 362 
 
N               118.3300000000       56.2870000000      147.1350000000
C               118.0830000000       57.6450000000      146.6550000000
C               119.3130000000       58.4870000000      146.9340000000
O               119.8310000000       59.0970000000      145.9940000000
C               116.8530000000       58.2660000000      147.3200000000
H               117.7530000000       55.9920000000      147.7010000000
H               117.9060000000       57.6130000000      145.7020000000
H               116.7190000000       59.1640000000      146.9790000000
H               116.0710000000       57.7260000000      147.1230000000
H               116.9870000000       58.3020000000      148.2800000000
N               119.7250000000       58.5700000000      148.2160000000
C               120.9100000000       59.3390000000      148.5680000000
C               121.9960000000       58.9140000000      147.6140000000
O               122.6370000000       59.7500000000      146.9980000000
C               121.3960000000       59.0670000000      150.0070000000
C               120.3850000000       59.4350000000      151.0450000000
O               119.8440000000       60.5170000000      151.0250000000
N               120.1480000000       58.5220000000      151.9480000000
H               119.3310000000       58.1900000000      148.8790000000
H               120.6980000000       60.2840000000      148.5130000000
H               121.6160000000       58.1270000000      150.0960000000
H               122.2120000000       59.5660000000      150.1670000000
H               119.5790000000       58.6740000000      152.5750000000
H               120.5610000000       57.7680000000      151.9160000000
N               122.1640000000       57.6050000000      147.4540000000
C               123.1800000000       57.0720000000      146.5520000000
C               123.0080000000       57.5660000000      145.1160000000
O               123.9890000000       57.7810000000      144.4340000000
C               123.1040000000       55.5250000000      146.5720000000
C               123.4840000000       54.8740000000      147.9120000000
C               123.0800000000       53.3900000000      147.9010000000
N               123.4360000000       52.7490000000      149.1460000000
C               122.7550000000       51.7130000000      149.6750000000
N               121.7050000000       51.2240000000      149.0260000000
N               123.1020000000       51.2410000000      150.8880000000
H               121.6980000000       57.0070000000      147.8600000000
H               124.0440000000       57.3850000000      146.8630000000
H               122.2010000000       55.2560000000      146.3410000000
H               123.6890000000       55.1770000000      145.8810000000
H               124.4390000000       54.9570000000      148.0630000000
H               123.0400000000       55.3340000000      148.6420000000
H               122.1240000000       53.3120000000      147.7550000000
H               123.5180000000       52.9370000000      147.1630000000
H               124.1210000000       53.0450000000      149.5740000000
H               121.4650000000       51.5680000000      148.2750000000
H               121.2650000000       50.5630000000      149.3560000000
H               123.7540000000       51.6000000000      151.3190000000
H               122.6720000000       50.5800000000      151.2310000000
N               121.7560000000       57.7450000000      144.6830000000
C               121.4830000000       58.2510000000      143.3530000000
C               121.9810000000       59.6840000000      143.3160000000
O               122.5670000000       60.1320000000      142.3390000000
C               119.9580000000       58.2180000000      143.0750000000
C               119.4350000000       56.8710000000      142.6870000000
C               118.0690000000       56.5720000000      142.7240000000
C               120.3010000000       55.8970000000      142.2290000000
C               117.5770000000       55.3600000000      142.2810000000
C               119.8000000000       54.6600000000      141.7870000000
C               118.4630000000       54.3970000000      141.8130000000
H               121.0550000000       57.5760000000      145.1520000000
H               121.9240000000       57.7100000000      142.6790000000
H               119.4880000000       58.5200000000      143.8680000000
H               119.7550000000       58.8490000000      142.3670000000
H               117.4760000000       57.2070000000      143.0560000000
H               121.2170000000       56.0600000000      142.2130000000
H               116.6630000000       55.1900000000      142.2960000000
H               120.3890000000       54.0120000000      141.4730000000
H               118.1440000000       53.5750000000      141.5180000000
N               121.7330000000       60.4210000000      144.3960000000
C               122.1950000000       61.8160000000      144.4890000000
C               123.7170000000       61.7720000000      144.4170000000
O               124.3470000000       62.4980000000      143.6480000000
C               121.7410000000       62.5000000000      145.7940000000
O               120.3730000000       62.8990000000      145.6750000000
C               122.6200000000       63.7590000000      146.0980000000
H               121.3020000000       60.1390000000      145.0850000000
H               121.8120000000       62.3380000000      143.7670000000
H               121.8410000000       61.8670000000      146.5220000000
H               120.1260000000       63.2700000000      146.3870000000
H               122.3180000000       64.1730000000      146.9210000000
H               123.5480000000       63.4910000000      146.1920000000
H               122.5400000000       64.3940000000      145.3690000000
N               124.2740000000       60.8120000000      145.1420000000
C               125.7020000000       60.5850000000      145.1990000000
C               126.1900000000       60.2900000000      143.7790000000
O               127.2930000000       60.6310000000      143.3980000000
C               125.9840000000       59.4320000000      146.0920000000
H               123.8190000000       60.2640000000      145.6240000000
H               126.1610000000       61.3640000000      145.5500000000
H               126.9410000000       59.2790000000      146.1310000000
H               125.6510000000       59.6230000000      146.9830000000
H               125.5440000000       58.6400000000      145.7460000000
N               125.3600000000       59.5380000000      143.0630000000
C               125.6850000000       59.1790000000      141.6940000000
C               125.7920000000       60.4830000000      140.9270000000
O               126.6990000000       60.6130000000      140.1000000000
C               124.6150000000       58.2950000000      141.0520000000
C               124.6230000000       56.8750000000      141.5910000000
O               123.5680000000       56.3000000000      141.8350000000
N               125.7970000000       56.3100000000      141.7790000000
H               124.6110000000       59.2290000000      143.3510000000
H               126.5130000000       58.6750000000      141.6740000000
H               123.7420000000       58.6890000000      141.2040000000
H               124.7530000000       58.2720000000      140.0920000000
H               125.8430000000       55.5070000000      142.0840000000
H               126.5170000000       56.7430000000      141.5960000000
N               124.9040000000       61.4630000000      141.2100000000
C               124.9120000000       62.7930000000      140.5480000000
C               126.2210000000       63.4780000000      140.9490000000
O               126.7800000000       64.2310000000      140.1940000000
C               123.7160000000       63.7100000000      140.9790000000
C               122.3740000000       63.0490000000      140.6370000000
C               123.8200000000       65.0920000000      140.3120000000
C               121.1740000000       63.9220000000      140.9850000000
H               124.2780000000       61.3740000000      141.7930000000
H               124.8280000000       62.6590000000      139.5910000000
H               123.7610000000       63.8310000000      141.9400000000
H               122.3530000000       62.8420000000      139.6900000000
H               122.3040000000       62.2070000000      141.1130000000
H               123.0720000000       65.6430000000      140.5910000000
H               124.6510000000       65.5170000000      140.5760000000
H               123.8030000000       64.9880000000      139.3480000000
H               120.3560000000       63.4570000000      140.7490000000
H               121.1750000000       64.1100000000      141.9370000000
H               121.2260000000       64.7550000000      140.4910000000
N               126.6440000000       63.2580000000      142.1980000000
C               127.8950000000       63.8060000000      142.7180000000
C               129.0090000000       63.2490000000      141.8460000000
O               129.8940000000       63.9960000000      141.3690000000
C               128.0830000000       63.3670000000      144.1470000000
C               127.0560000000       63.8810000000      145.1400000000
C               127.2180000000       63.2400000000      146.5110000000
C               126.1510000000       63.7620000000      147.4630000000
N               126.3850000000       63.2110000000      148.8280000000
H               126.2090000000       62.7840000000      142.7680000000
H               127.8940000000       64.7760000000      142.7000000000
H               128.0750000000       62.3970000000      144.1730000000
H               128.9620000000       63.6510000000      144.4410000000
H               127.1400000000       64.8440000000      145.2220000000
H               126.1640000000       63.7020000000      144.8030000000
H               127.1490000000       62.2750000000      146.4350000000
H               128.1000000000       63.4350000000      146.8650000000
H               126.1730000000       64.7310000000      147.4880000000
H               125.2700000000       63.5060000000      147.1480000000
H               125.7600000000       63.5170000000      149.3830000000
H               126.3470000000       62.3220000000      148.8000000000
H               127.1880000000       63.4640000000      149.1170000000
N               129.0030000000       61.9300000000      141.6400000000
C               129.9960000000       61.2890000000      140.7860000000
C               129.8160000000       61.7400000000      139.3490000000
O               130.7800000000       61.7750000000      138.5780000000
H               128.4300000000       61.3910000000      141.9880000000
H               130.8890000000       61.5110000000      141.0930000000
H               129.9080000000       60.3250000000      140.8430000000
N               128.5860000000       62.1090000000      138.9880000000
C               128.1960000000       62.6000000000      137.6610000000
C               128.5540000000       64.0580000000      137.4350000000
O               128.6280000000       64.4750000000      136.2720000000
C               126.6860000000       62.4710000000      137.4480000000
C               126.0650000000       61.1070000000      137.2020000000
C               124.5420000000       61.2480000000      137.1400000000
C               126.6280000000       60.5420000000      135.9070000000
H               127.9240000000       62.0790000000      139.5360000000
H               128.6900000000       62.0490000000      137.0340000000
H               126.2520000000       62.8490000000      138.2290000000
H               126.4520000000       63.0340000000      136.6930000000
H               126.2780000000       60.4950000000      137.9240000000
H               124.1420000000       60.3780000000      136.9830000000
H               124.2160000000       61.6060000000      137.9800000000
H               124.3020000000       61.8490000000      136.4180000000
H               126.2390000000       59.6700000000      135.7380000000
H               126.4140000000       61.1390000000      135.1730000000
H               127.5910000000       60.4570000000      135.9830000000
N               128.7270000000       64.8290000000      138.5120000000
C               129.1220000000       66.2220000000      138.4000000000
C               130.5840000000       66.0770000000      137.9920000000
O               131.0660000000       66.6780000000      137.0310000000
C               129.0030000000       67.0150000000      139.7010000000
O               129.7260000000       66.3600000000      140.7490000000
C               127.5930000000       67.2020000000      140.1270000000
H               128.6180000000       64.5550000000      139.3200000000
H               128.5570000000       66.7180000000      137.7870000000
H               129.3810000000       67.8910000000      139.5280000000
H               129.3910000000       65.6030000000      140.8900000000
H               127.5690000000       67.7090000000      140.9540000000
H               127.1080000000       67.6840000000      139.4390000000
H               127.1790000000       66.3360000000      140.2670000000
N               131.2650000000       65.2140000000      138.7300000000
C               132.6510000000       64.9030000000      138.4770000000
C               132.6890000000       64.2190000000      137.1090000000
O               133.5900000000       64.4540000000      136.3140000000
C               133.1340000000       63.9550000000      139.5640000000
C               133.0770000000       64.5610000000      140.9550000000
C               132.8690000000       63.5460000000      142.0200000000
O               132.0520000000       63.7400000000      142.9110000000
N               133.5890000000       62.4290000000      141.9460000000
H               130.9280000000       64.7900000000      139.3980000000
H               133.2040000000       65.7000000000      138.4970000000
H               132.5930000000       63.1490000000      139.5470000000
H               134.0460000000       63.6880000000      139.3710000000
H               133.9030000000       65.0400000000      141.1280000000
H               132.3590000000       65.2120000000      140.9900000000
H               134.1550000000       62.3240000000      141.3060000000
H               133.4890000000       61.8120000000      142.5370000000
N               131.6840000000       63.4040000000      136.7890000000
C               131.6610000000       62.7670000000      135.4600000000
C               131.4520000000       63.8560000000      134.3920000000
O               132.0410000000       63.8030000000      133.3200000000
C               130.5470000000       61.7160000000      135.4120000000
H               131.0240000000       63.2080000000      137.3040000000
H               132.5020000000       62.3170000000      135.2850000000
H               130.5340000000       61.2980000000      134.5370000000
H               130.7090000000       61.0410000000      136.0900000000
H               129.6920000000       62.1430000000      135.5790000000
N               130.6220000000       64.8490000000      134.7220000000
C               130.3500000000       65.9450000000      133.7940000000
C               131.7030000000       66.6100000000      133.4940000000
O               132.0200000000       66.8690000000      132.3400000000
C               129.4020000000       66.9640000000      134.4430000000
O               128.8280000000       67.8070000000      133.4790000000
H               130.2090000000       64.9050000000      135.4750000000
H               129.9280000000       65.6190000000      132.9840000000
H               128.7020000000       66.4970000000      134.9260000000
H               129.8890000000       67.4950000000      135.0920000000
H               128.3130000000       68.3540000000      133.8550000000
N               130.8850000000       57.8100000000      131.8530000000
C               129.7560000000       58.7220000000      131.8890000000
C               128.5440000000       58.1390000000      132.5940000000
O               127.6990000000       58.8520000000      133.0740000000
C               129.3260000000       59.1580000000      130.4580000000
C               130.4930000000       59.8250000000      129.7170000000
C               128.8510000000       57.9470000000      129.6850000000
H               130.7270000000       57.0580000000      131.4660000000
H               130.0670000000       59.4900000000      132.3930000000
H               128.6050000000       59.8020000000      130.5320000000
H               130.2040000000       60.0890000000      128.8290000000
H               130.7830000000       60.6090000000      130.2090000000
H               131.2300000000       59.1990000000      129.6440000000
H               128.5830000000       58.2170000000      128.7930000000
H               129.5710000000       57.2990000000      129.6240000000
H               128.0950000000       57.5470000000      130.1420000000
N               128.4520000000       56.8010000000      132.6360000000
C               127.3680000000       56.1580000000      133.3500000000
C               127.7280000000       55.9380000000      134.8140000000
O               128.8290000000       56.3120000000      135.2520000000
H               129.0060000000       56.2630000000      132.2580000000
H               126.5680000000       56.7040000000      133.2890000000
H               127.1630000000       55.3070000000      132.9330000000
N               126.8080000000       55.3340000000      135.5630000000
C               127.0290000000       55.0450000000      136.9630000000
C               127.3480000000       53.5520000000      137.1560000000
O               127.6640000000       53.1100000000      138.2760000000
C               125.7970000000       55.4100000000      137.7840000000
H               126.0400000000       55.0830000000      135.2670000000
H               127.7820000000       55.5760000000      137.2670000000
H               125.9600000000       55.2110000000      138.7190000000
H               125.6100000000       56.3560000000      137.6830000000
H               125.0360000000       54.8950000000      137.4720000000
N               121.5680000000       62.6800000000      131.0190000000
C               121.7660000000       62.7560000000      132.4770000000
C               121.1830000000       64.0210000000      133.0250000000
O               120.5610000000       64.0200000000      134.0630000000
C               123.2670000000       62.6980000000      132.8220000000
C               123.9840000000       61.4260000000      132.4110000000
C               125.4570000000       61.4960000000      132.7160000000
C               123.3020000000       60.2830000000      133.0670000000
H               122.2920000000       62.5510000000      130.5730000000
H               121.3140000000       61.9970000000      132.8780000000
H               123.7090000000       63.4510000000      132.3990000000
H               123.3670000000       62.8120000000      133.7800000000
H               123.9360000000       61.3060000000      131.4500000000
H               125.8840000000       60.6690000000      132.4420000000
H               125.8520000000       62.2390000000      132.2340000000
H               125.5850000000       61.6250000000      133.6690000000
H               123.7440000000       59.4560000000      132.8180000000
H               123.3400000000       60.3930000000      134.0300000000
H               122.3750000000       60.2520000000      132.7820000000
N               118.5350000000       64.3540000000      135.9750000000
C               118.8820000000       65.1450000000      137.1670000000
C               117.7050000000       65.9430000000      137.7470000000
O               117.4450000000       65.8720000000      138.9550000000
C               120.0790000000       66.1300000000      136.8790000000
C               120.3200000000       67.0440000000      138.0960000000
C               121.3420000000       65.3740000000      136.5360000000
H               119.1060000000       64.4300000000      135.3370000000
H               119.1450000000       64.4890000000      137.8310000000
H               119.8400000000       66.6760000000      136.1140000000
H               121.0580000000       67.6450000000      137.9080000000
H               119.5190000000       67.5610000000      138.2760000000
H               120.5350000000       66.5010000000      138.8710000000
H               122.0600000000       66.0040000000      136.3640000000
H               121.5870000000       64.8000000000      137.2780000000
H               121.1910000000       64.8330000000      135.7450000000
N               115.1080000000       63.5560000000      139.0650000000
C               115.6750000000       62.9220000000      140.2480000000
C               115.5500000000       63.7590000000      141.5100000000
O               115.0010000000       63.2950000000      142.5130000000
C               117.1390000000       62.5430000000      139.9850000000
C               117.3720000000       61.3500000000      139.0410000000
C               118.7690000000       61.3760000000      138.4670000000
C               117.0880000000       60.0640000000      139.7590000000
H               115.6550000000       63.6330000000      138.4060000000
H               115.1530000000       62.1220000000      140.4130000000
H               117.5930000000       63.3170000000      139.6160000000
H               117.5610000000       62.3460000000      140.8360000000
H               116.7580000000       61.4180000000      138.2930000000
H               118.8910000000       60.6160000000      137.8770000000
H               118.8980000000       62.1970000000      137.9670000000
H               119.4160000000       61.3320000000      139.1880000000
H               117.2370000000       59.3180000000      139.1580000000
H               117.6770000000       59.9840000000      140.5250000000
H               116.1660000000       60.0580000000      140.0590000000
N               116.0480000000       64.9920000000      141.4160000000
C               116.0200000000       65.9230000000      142.5310000000
C               114.5730000000       65.9630000000      143.0260000000
O               114.2560000000       65.8080000000      144.2140000000
C               116.4090000000       67.3620000000      142.0590000000
O               115.7920000000       67.6370000000      140.7830000000
C               117.8810000000       67.5750000000      141.9700000000
H               116.4100000000       65.3070000000      140.7030000000
H               116.6440000000       65.6410000000      143.2180000000
H               116.0820000000       67.9780000000      142.7330000000
H               115.5220000000       66.9190000000      140.4410000000
H               118.0600000000       68.4810000000      141.6740000000
H               118.2820000000       67.4360000000      142.8420000000
H               118.2610000000       66.9470000000      141.3360000000
N               113.1240000000       62.3490000000      144.6170000000
C               113.5400000000       62.1890000000      145.9940000000
C               112.9310000000       63.2510000000      146.9130000000
O               112.5250000000       62.9310000000      148.0390000000
C               115.0490000000       62.2290000000      146.0790000000
C               115.6700000000       63.5360000000      145.6190000000
C               117.2050000000       63.5140000000      145.6380000000
N               117.7060000000       64.8790000000      145.4800000000
C               118.2580000000       65.5890000000      146.4570000000
N               118.3620000000       65.0450000000      147.6490000000
N               118.7150000000       66.8280000000      146.2310000000
H               113.7600000000       62.5520000000      144.0750000000
H               113.2160000000       61.3270000000      146.3000000000
H               115.3150000000       62.0630000000      146.9970000000
H               115.4110000000       61.5060000000      145.5440000000
H               115.3660000000       63.7330000000      144.7190000000
H               115.3550000000       64.2550000000      146.1890000000
H               117.5240000000       63.1350000000      146.4720000000
H               117.5400000000       62.9500000000      144.9240000000
H               117.6390000000       65.2450000000      144.7050000000
H               118.0760000000       64.2450000000      147.7830000000
H               118.7170000000       65.4890000000      148.2950000000
H               118.6530000000       67.1730000000      145.4460000000
H               119.0710000000       67.2790000000      146.8710000000
H               118.3237529604       55.7165339315      146.4389185111
H               132.3276423076       66.8325461573      134.2425286871
H               131.5668138636       58.1933757418      131.4078563197
H               127.3025093904       52.9262621109      136.3772942157
H               121.0131971528       61.9980456082      130.8263033258
H               121.3051490694       64.8824533962      132.5320723674
H               118.4905042039       63.4825035930      136.1952592487
H               117.1488519135       66.5198262385      137.1486933926
H               114.4092669531       63.0713922535      138.7701653665
H               113.8272721475       66.1205136830      142.3786365707
H               112.7628090345       61.5796518317      144.3209518919
H               112.8618517131       64.1995178332      146.6039167839
