498
Properties=species:S:1:pos:R:3 pbc="F F F"
N      33.86200000      28.14100000      27.33700000 
C      34.64300000      27.52200000      26.29000000 
C      34.46700000      26.02700000      26.39100000 
O      35.41600000      25.24700000      26.49800000 
C      36.07500000      27.98100000      26.40600000 
C      36.32300000      29.42200000      25.92900000 
C      36.78600000      29.41100000      24.48100000 
C      35.14200000      30.36900000      26.07200000 
H      34.29400000      28.30300000      28.21500000 
H      34.22200000      27.82400000      25.34600000 
H      36.39300000      27.85800000      27.43200000 
H      36.67900000      27.31800000      25.81800000 
H      37.13100000      29.82200000      26.53100000 
H      36.93400000      30.41500000      24.10900000 
H      37.71500000      28.87200000      24.37800000 
H      36.05200000      28.91800000      23.85600000 
H      35.43000000      31.36000000      25.74400000 
H      34.31600000      30.05200000      25.44800000 
H      34.78600000      30.44200000      27.08500000 
N      33.19900000      25.59400000      26.38600000 
C      32.86600000      24.24400000      26.76600000 
C      33.67600000      23.23700000      25.98500000 
O      34.23600000      22.32700000      26.60100000 
C      31.37500000      23.99900000      26.60800000 
C      30.48100000      24.94300000      27.35000000 
C      29.62400000      25.74500000      26.61600000 
C      30.42600000      24.99900000      28.73200000 
C      28.71400000      26.57600000      27.23800000 
C      29.51000000      25.81800000      29.36500000 
C      28.65000000      26.59200000      28.61200000 
O      27.74700000      27.40300000      29.26400000 
H      32.46900000      26.24700000      26.22300000 
H      33.15600000      24.07700000      27.79100000 
H      31.12000000      24.07200000      25.57300000 
H      31.18500000      22.98500000      26.91400000 
H      29.66700000      25.71500000      25.55000000 
H      31.07900000      24.38600000      29.31600000 
H      28.05300000      27.19400000      26.66500000 
H      29.43500000      25.84200000      30.42800000 
H      26.83300000      27.21600000      29.06600000 
N      33.77600000      23.36100000      24.65200000 
C      34.88500000      22.77700000      23.93700000 
C      35.79900000      23.86400000      23.42800000 
O      35.34300000      24.93200000      23.00300000 
C      34.19800000      22.15100000      22.72700000 
C      33.12700000      23.17900000      22.38500000 
C      32.72000000      23.77800000      23.72600000 
H      35.40900000      22.06600000      24.54600000 
H      34.86400000      21.95800000      21.91000000 
H      33.75200000      21.22000000      23.03500000 
H      33.53400000      23.92900000      21.73700000 
H      32.28700000      22.73500000      21.88800000 
H      32.61900000      24.84400000      23.69700000 
H      31.78700000      23.34100000      24.02700000 
N      37.10500000      23.57900000      23.32300000 
C      37.93800000      24.28100000      22.36900000 
C      38.40100000      25.64300000      22.81200000 
O      37.87200000      26.67500000      22.38200000 
H      37.47400000      22.77300000      23.77200000 
H      38.79300000      23.66000000      22.16600000 
H      37.37900000      24.43200000      21.46500000 
N      39.43400000      25.69500000      23.66200000 
C      39.87900000      26.95000000      24.20000000 
C      41.36900000      27.07600000      24.14100000 
O      42.07900000      26.30300000      23.48100000 
C      39.39300000      27.15200000      25.62400000 
H      39.87900000      24.84900000      23.92900000 
H      39.46500000      27.71400000      23.56300000 
H      39.16800000      28.18400000      25.83500000 
H      38.50100000      26.57900000      25.75600000 
H      40.12500000      26.82900000      26.33600000 
N      41.60600000      29.17000000      14.08900000 
C      42.13100000      27.83800000      14.03600000 
C      41.39500000      27.05000000      12.98000000 
O      40.75900000      27.58900000      12.06200000 
C      41.97400000      27.12800000      15.39900000 
C      42.07400000      28.05500000      16.59500000 
C      41.10000000      27.68300000      17.68900000 
N      41.65100000      26.73400000      18.64800000 
C      41.51000000      26.81200000      19.95200000 
N      41.86500000      25.78600000      20.71400000 
N      41.01500000      27.90000000      20.53700000 
H      40.66600000      29.20800000      14.45200000 
H      43.16900000      27.89600000      13.75200000 
H      40.99600000      26.68000000      15.41300000 
H      42.69900000      26.33100000      15.46600000 
H      43.06500000      28.09100000      16.99100000 
H      41.82500000      29.04700000      16.29100000 
H      40.79600000      28.57500000      18.20400000 
H      40.22600000      27.25600000      17.25100000 
H      42.08300000      25.90500000      18.27900000 
H      42.15700000      24.93800000      20.28800000 
H      41.88200000      25.86900000      21.71400000 
H      40.83000000      28.73200000      20.03400000 
H      40.83500000      27.91000000      21.50900000 
N      36.74800000      21.60200000      14.43200000 
C      36.84700000      20.62600000      15.47800000 
C      35.58700000      19.80500000      15.54500000 
O      34.60200000      20.05000000      14.83700000 
C      37.13800000      21.29700000      16.83200000 
C      38.49900000      20.91800000      17.36700000 
S      38.92000000      22.03600000      18.79900000 
C      40.04700000      20.93600000      19.77800000 
H      35.89700000      22.13000000      14.36500000 
H      37.65600000      19.95800000      15.23500000 
H      37.07500000      22.36000000      16.68400000 
H      36.38800000      21.03100000      17.54800000 
H      38.49500000      19.90800000      17.74200000 
H      39.26100000      21.02000000      16.61700000 
H      40.30400000      21.46500000      20.67700000 
H      39.53400000      20.02300000      20.01500000 
H      40.93000000      20.73600000      19.20000000 
N      35.59400000      18.79500000      16.41200000 
C      34.45100000      17.95200000      16.62600000 
C      34.35800000      17.64700000      18.09600000 
O      35.36800000      17.47200000      18.78800000 
C      34.53500000      16.65400000      15.84500000 
O      35.70900000      15.99000000      16.31500000 
C      34.61500000      16.87800000      14.36400000 
H      36.39500000      18.60800000      16.96700000 
H      33.57900000      18.48800000      16.30400000 
H      33.65900000      16.07000000      16.09000000 
H      35.80100000      15.10400000      15.97800000 
H      34.74000000      15.92700000      13.86200000 
H      33.71600000      17.33300000      13.98700000 
H      35.46100000      17.50400000      14.13000000 
N      33.11700000      17.58400000      18.56900000 
C      32.78700000      17.42000000      19.96100000 
C      31.71700000      16.36000000      20.03700000 
O      30.89500000      16.25600000      19.11000000 
C      32.28400000      18.75400000      20.53400000 
C      33.19000000      19.89300000      20.15300000 
C      34.56300000      19.75000000      20.21200000 
C      32.68000000      21.09900000      19.69500000 
C      35.41000000      20.75500000      19.81100000 
C      33.52200000      22.13100000      19.32200000 
C      34.88400000      21.95800000      19.39100000 
O      35.68900000      23.02100000      19.07100000 
H      32.35100000      17.71600000      17.95900000 
H      33.66000000      17.09900000      20.49200000 
H      31.29200000      18.94200000      20.15500000 
H      32.20400000      18.65500000      21.60600000 
H      34.98600000      18.83000000      20.52800000 
H      31.62500000      21.24500000      19.64700000 
H      36.46700000      20.61400000      19.83500000 
H      33.12900000      23.06900000      18.99800000 
H      36.62400000      22.84500000      19.17300000 
N      31.70700000      15.56600000      21.10400000 
C      30.73100000      14.52700000      21.24800000 
C      29.97300000      14.71900000      22.52400000 
O      30.44300000      15.36500000      23.47400000 
C      31.33300000      13.12900000      21.24000000 
O      31.86800000      12.76200000      22.50200000 
H      32.34000000      15.74700000      21.85300000 
H      30.05200000      14.60700000      20.41700000 
H      30.55400000      12.41800000      21.03500000 
H      32.07800000      13.07900000      20.46100000 
H      32.56600000      13.32300000      22.84200000 
N      28.78000000      14.16000000      22.56600000 
C      27.86700000      14.32200000      23.67900000 
C      27.31000000      12.94900000      23.92800000 
O      26.39700000      12.51600000      23.20300000 
C      26.76900000      15.29600000      23.27900000 
C      27.32800000      16.67800000      22.94000000 
C      25.71500000      15.40600000      24.36200000 
C      26.52500000      17.35100000      21.84200000 
H      28.42000000      13.72000000      21.74900000 
H      28.41300000      14.67700000      24.53000000 
H      26.31600000      14.88500000      22.38900000 
H      27.32700000      17.28300000      23.83600000 
H      28.35400000      16.60400000      22.61900000 
H      24.95900000      16.11400000      24.06600000 
H      25.23900000      14.45800000      24.55800000 
H      26.16200000      15.76300000      25.27700000 
H      26.83100000      18.38100000      21.69800000 
H      26.66100000      16.82600000      20.90900000 
H      25.46900000      17.34900000      22.07700000 
N      32.46700000      21.53300000      13.83800000 
C      32.24500000      22.71500000      14.62400000 
C      33.38800000      23.66400000      14.40200000 
O      34.51900000      23.23300000      14.10500000 
C      32.12500000      22.37300000      16.12200000 
C      31.46300000      23.52900000      16.85200000 
C      31.32500000      21.09800000      16.31800000 
H      33.36200000      21.10000000      13.94500000 
H      31.32600000      23.16700000      14.29900000 
H      33.12100000      22.21200000      16.51100000 
H      31.19700000      23.24400000      17.85800000 
H      32.09600000      24.39600000      16.89400000 
H      30.55700000      23.80900000      16.33800000 
H      31.18800000      20.91700000      17.37200000 
H      30.35700000      21.18500000      15.85300000 
H      31.83300000      20.24500000      15.89500000 
N      30.33000000      27.06400000      19.49300000 
C      30.21700000      26.22200000      20.66800000 
C      28.77600000      26.19300000      21.09600000 
O      28.15800000      25.14000000      21.28300000 
C      31.11700000      26.69300000      21.83300000 
C      31.39700000      28.18700000      21.85900000 
C      30.51200000      26.28700000      23.17400000 
H      30.83100000      27.91300000      19.54000000 
H      30.46900000      25.21200000      20.40900000 
H      32.05800000      26.17700000      21.71500000 
H      31.97200000      28.42200000      22.74200000 
H      31.96800000      28.53000000      21.01000000 
H      30.48400000      28.75400000      21.91500000 
H      31.21000000      26.49800000      23.96600000 
H      29.61700000      26.85900000      23.37300000 
H      30.26000000      25.23900000      23.20800000 
N      26.19100000      23.08200000      20.10300000 
C      25.72300000      22.29400000      21.21600000 
C      24.23000000      22.42100000      21.32300000 
O      23.51400000      21.41900000      21.46500000 
C      26.43700000      22.71600000      22.49700000 
C      25.69700000      22.19600000      23.71800000 
C      27.86000000      22.18400000      22.47200000 
H      26.78900000      23.86100000      20.27600000 
H      25.91100000      21.25100000      21.02900000 
H      26.46000000      23.79100000      22.52500000 
H      26.28700000      22.36300000      24.60700000 
H      24.74200000      22.68300000      23.84800000 
H      25.52600000      21.13800000      23.62200000 
H      28.41200000      22.54900000      23.32700000 
H      27.84400000      21.10100000      22.51400000 
H      28.37800000      22.49300000      21.57900000 
N      24.21300000      15.90500000      31.25800000 
C      24.84600000      16.17200000      29.99900000 
C      26.33700000      16.07700000      30.13600000 
O      26.91200000      16.52400000      31.15500000 
C      24.45300000      17.58900000      29.57800000 
C      24.50100000      17.83800000      28.10900000 
C      25.34100000      18.78500000      27.55800000 
C      23.61600000      17.16100000      27.27900000 
C      25.29700000      19.06100000      26.19900000 
C      23.56600000      17.42600000      25.93200000 
C      24.41000000      18.38400000      25.40100000 
O      24.30400000      18.60900000      24.05000000 
H      23.77400000      16.65800000      31.71700000 
H      24.50800000      15.45500000      29.27300000 
H      23.44200000      17.74400000      29.91600000 
H      25.07900000      18.28900000      30.09800000 
H      26.02400000      19.31600000      28.18300000 
H      22.96500000      16.42600000      27.70100000 
H      25.95100000      19.79500000      25.77500000 
H      22.89600000      16.90400000      25.28800000 
H      24.98400000      19.16300000      23.68300000 
N      27.01000000      15.53800000      29.13800000 
C      28.45200000      15.47900000      29.15000000 
C      28.91900000      15.68200000      27.74500000 
O      28.38500000      15.04900000      26.81400000 
C      28.92000000      14.16200000      29.74100000 
O      28.61900000      14.18200000      31.14700000 
C      30.39000000      13.93000000      29.54800000 
H      26.54200000      15.12500000      28.36400000 
H      28.82300000      16.27200000      29.76800000 
H      28.35700000      13.36300000      29.28700000 
H      28.13600000      14.96300000      31.41500000 
H      30.69700000      13.07100000      30.12500000 
H      30.60400000      13.73200000      28.50800000 
H      30.95800000      14.79100000      29.86800000 
N      29.88600000      16.56300000      27.59300000 
C      30.38200000      16.95500000      26.30000000 
C      31.85600000      16.69400000      26.29000000 
O      32.54900000      17.06700000      27.25800000 
C      30.14600000      18.44600000      26.04000000 
C      30.39800000      18.75500000      24.57300000 
C      28.74700000      18.86200000      26.45200000 
H      30.27900000      17.01200000      28.39900000 
H      29.88300000      16.36800000      25.55200000 
H      30.85200000      18.98800000      26.64100000 
H      30.33700000      19.82000000      24.39700000 
H      31.37200000      18.41200000      24.25500000 
H      29.65500000      18.26300000      23.96100000 
H      28.58800000      19.90600000      26.21300000 
H      28.00500000      18.27800000      25.92600000 
H      28.58900000      18.73200000      27.51000000 
N      32.37700000      16.09200000      25.23500000 
C      33.78100000      15.82300000      25.18900000 
C      34.38500000      16.26600000      23.89100000 
O      33.74600000      16.31600000      22.82600000 
C      34.07300000      14.37200000      25.47400000 
O      33.50100000      13.58500000      24.42900000 
H      31.78400000      15.78000000      24.48800000 
H      34.23600000      16.39900000      25.97300000 
H      35.13800000      14.20900000      25.52400000 
H      33.62200000      14.12200000      26.42100000 
H      33.25500000      12.71000000      24.71400000 
N      35.65900000      16.61600000      23.98800000 
C      36.44200000      17.14300000      22.90500000 
C      37.29900000      16.05800000      22.32100000 
O      37.69200000      15.10800000      23.01500000 
C      37.29200000      18.30700000      23.45100000 
C      38.53700000      17.83400000      24.18200000 
C      37.64300000      19.30200000      22.36300000 
H      36.09700000      16.56000000      24.87200000 
H      35.76800000      17.51400000      22.15400000 
H      36.65400000      18.80000000      24.16800000 
H      38.99900000      18.67400000      24.67100000 
H      38.31200000      17.08500000      24.93000000 
H      39.25800000      17.41800000      23.49500000 
H      38.22800000      20.11100000      22.77900000 
H      38.22200000      18.84000000      21.58000000 
H      36.75000000      19.72200000      21.93200000 
N      37.65200000      16.18400000      21.04300000 
C      38.56100000      15.24100000      20.44200000 
C      39.96700000      15.67400000      20.76000000 
O      40.33100000      16.85000000      20.59700000 
C      38.30600000      15.15400000      18.94400000 
C      38.42100000      13.73500000      18.45200000 
O      39.31300000      13.01800000      18.99000000 
O      37.63300000      13.36500000      17.53700000 
H      37.29600000      16.93200000      20.49300000 
H      38.38300000      14.28400000      20.88900000 
H      37.32200000      15.52400000      18.72800000 
H      39.01000000      15.76900000      18.40300000 
N      40.80200000      14.76300000      21.25400000 
C      42.13600000      15.13200000      21.63600000 
C      42.92500000      15.57700000      20.42900000 
O      42.77100000      15.06900000      19.31000000 
C      42.82700000      13.96600000      22.31900000 
H      40.52100000      13.81600000      21.29300000 
H      42.08100000      15.96600000      22.31600000 
H      43.82700000      14.25100000      22.61400000 
H      42.27500000      13.68500000      23.20200000 
H      42.88700000      13.11800000      21.65400000 
N      43.70000000      24.12500000      26.74200000 
C      42.48400000      24.08100000      25.96400000 
C      41.41400000      23.34700000      26.72400000 
O      41.65900000      22.29800000      27.34100000 
C      42.74000000      23.48300000      24.57200000 
C      42.60800000      21.99700000      24.43400000 
C      43.48600000      21.11100000      25.03600000 
C      41.57700000      21.48900000      23.66700000 
C      43.32100000      19.74800000      24.88900000 
C      41.39200000      20.12500000      23.52200000 
C      42.26000000      19.26400000      24.15300000 
O      42.06100000      17.90100000      24.00000000 
H      44.17000000      23.27000000      26.94700000 
H      42.17500000      25.09800000      25.82500000 
H      42.05300000      23.95500000      23.89200000 
H      43.73000000      23.80600000      24.29500000 
H      44.29800000      21.47700000      25.62900000 
H      40.89600000      22.16400000      23.19100000 
H      44.00300000      19.05900000      25.34400000 
H      40.58300000      19.73200000      22.94900000 
H      42.02600000      17.42600000      24.82700000 
N      40.17900000      23.83900000      26.73700000 
C      39.18200000      23.18100000      27.53900000 
C      38.96000000      21.78500000      27.02600000 
O      39.00600000      21.51800000      25.81900000 
C      37.88900000      23.98600000      27.61000000 
C      38.15900000      25.34800000      28.27600000 
C      36.82600000      23.16800000      28.32200000 
C      37.14700000      25.78200000      29.32000000 
H      39.93400000      24.64100000      26.21700000 
H      39.57800000      23.09100000      28.53200000 
H      37.55100000      24.15600000      26.60300000 
H      39.14800000      25.35000000      28.70300000 
H      38.15700000      26.10500000      27.51800000 
H      35.92900000      23.74900000      28.40500000 
H      36.57800000      22.28600000      27.76000000 
H      37.15600000      22.86700000      29.30100000 
H      37.39800000      26.77300000      29.67700000 
H      36.16400000      25.82300000      28.88200000 
H      37.11500000      25.12200000      30.16900000 
N      38.73600000      20.87100000      27.97100000 
C      38.68700000      19.46300000      27.66900000 
C      37.22800000      19.07500000      27.54400000 
O      36.55400000      19.60200000      26.64500000 
C      39.58700000      18.72300000      28.64200000 
O      40.21700000      17.63100000      27.97600000 
H      38.59500000      21.14500000      28.92100000 
H      39.11300000      19.33400000      26.69500000 
H      40.33700000      19.42100000      28.97000000 
H      39.06900000      18.37200000      29.51800000 
H      41.16800000      17.65100000      28.11800000 
N      36.68600000      18.22000000      28.39900000 
C      35.27700000      17.93800000      28.39900000 
C      34.55100000      18.90000000      29.32200000 
O      35.12400000      19.88600000      29.79900000 
C      35.09100000      16.50800000      28.83500000 
O      35.70000000      16.42600000      30.12600000 
H      37.19600000      17.85500000      29.16500000 
H      34.88500000      18.06900000      27.41000000 
H      34.05200000      16.24900000      28.88000000 
H      35.59200000      15.85800000      28.13700000 
H      35.90100000      15.53700000      30.40500000 
N      33.27400000      18.62000000      29.57500000 
C      32.49500000      19.39200000      30.51500000 
C      31.25600000      18.60000000      30.83700000 
O      30.90500000      17.63800000      30.12900000 
C      32.14600000      20.77500000      29.94500000 
C      31.35000000      20.63100000      28.66900000 
C      31.42900000      21.67700000      30.93200000 
H      32.79800000      17.93100000      29.03300000 
H      33.07200000      19.53000000      31.41600000 
H      33.10000000      21.21700000      29.71200000 
H      31.06700000      21.60500000      28.30400000 
H      31.93100000      20.13100000      27.91300000 
H      30.44300000      20.06700000      28.83900000 
H      31.45500000      22.69000000      30.56700000 
H      30.39300000      21.39300000      31.03400000 
H      31.88700000      21.66600000      31.90800000 
N      30.54200000      18.99700000      31.88400000 
C      29.29500000      18.37100000      32.23700000 
C      28.34500000      19.41800000      32.75500000 
O      28.76100000      20.42700000      33.34600000 
C      29.50000000      17.28700000      33.27600000 
H      30.85400000      19.75400000      32.44600000 
H      28.87800000      17.93500000      31.35100000 
H      28.57500000      16.78500000      33.48400000 
H      30.21000000      16.56800000      32.89300000 
H      29.89100000      17.71400000      34.18800000 
N      27.05700000      19.17100000      32.53400000 
C      26.00800000      20.04900000      32.97800000 
C      25.03100000      19.31100000      33.85400000 
O      24.74400000      18.11800000      33.64500000 
C      25.11800000      20.56300000      31.85300000 
C      25.68200000      21.45900000      30.80400000 
C      27.02400000      21.68200000      30.56200000 
C      24.75100000      22.08400000      29.97700000 
C      27.42900000      22.49600000      29.51100000 
C      25.13800000      22.89100000      28.93800000 
C      26.48800000      23.09200000      28.70700000 
O      26.82500000      23.90200000      27.64700000 
H      26.80300000      18.32700000      32.06400000 
H      26.44500000      20.86300000      33.51900000 
H      24.69300000      19.69500000      31.37800000 
H      24.29900000      21.08300000      32.32200000 
H      27.76800000      21.23900000      31.17900000 
H      23.70800000      21.92300000      30.16800000 
H      28.47200000      22.65900000      29.32500000 
H      24.41900000      23.36800000      28.30500000 
H      27.75200000      24.10300000      27.57800000 
N      30.64400000      21.38600000      36.32100000 
C      32.07700000      21.32000000      36.37300000 
C      32.73500000      21.82800000      35.11600000 
O      32.12500000      21.92800000      34.04800000 
C      32.53800000      19.89400000      36.64100000 
O      33.07300000      19.87400000      37.96600000 
H      30.14000000      20.55700000      36.12400000 
H      32.41700000      21.93300000      37.19000000 
H      31.70400000      19.21400000      36.55800000 
H      33.29500000      19.59700000      35.93300000 
H      33.39500000      19.01200000      38.21200000 
N      34.03400000      22.09600000      35.26000000 
C      34.92600000      22.47600000      34.19300000 
C      36.22700000      21.72200000      34.35900000 
O      36.59700000      21.32100000      35.47500000 
C      35.19300000      23.98300000      34.21800000 
C      34.08800000      24.78400000      33.59900000 
C      33.95200000      24.79900000      32.21700000 
C      33.20800000      25.53800000      34.35600000 
C      32.98100000      25.56000000      31.60400000 
C      32.22800000      26.30700000      33.75100000 
C      32.12800000      26.32000000      32.37700000 
O      31.15300000      27.11300000      31.81500000 
H      34.45300000      21.99300000      36.15400000 
H      34.47400000      22.20300000      33.25500000 
H      35.33800000      24.27400000      35.24800000 
H      36.11400000      24.18400000      33.69100000 
H      34.62100000      24.21800000      31.62100000 
H      33.29400000      25.54000000      35.42100000 
H      32.89600000      25.58100000      30.53700000 
H      31.55400000      26.89900000      34.32700000 
H      31.19900000      27.16300000      30.86900000 
N      36.94900000      21.54600000      33.25700000 
C      38.20400000      20.82800000      33.21200000 
C      38.91700000      21.25900000      31.95800000 
O      38.25000000      21.43800000      30.91700000 
C      37.98100000      19.31900000      33.17600000 
O      39.24200000      18.78100000      32.75300000 
C      36.90900000      18.89200000      32.21500000 
H      36.58300000      21.83000000      32.37900000 
H      38.79700000      21.07500000      34.07600000 
H      37.75500000      18.98800000      34.17700000 
H      39.41100000      17.92200000      33.11900000 
H      36.88100000      17.81600000      32.15400000 
H      35.93800000      19.24000000      32.53100000 
H      37.09800000      19.28600000      31.23400000 
H      33.58346503      28.95223062      27.06437727 
H      41.82950115      27.80557318      24.64662997 
H      42.12543257      29.67668777      14.62140709 
H      41.40757897      26.05033450      13.00259769 
H      37.39892288      22.21558828      14.53103950 
H      27.67344895      12.38950152      24.67289349 
H      31.85804966      20.90762979      14.05729794 
H      33.24438032      24.64950903      14.49225156 
H      30.73889405      26.60709440      18.83418066 
H      28.27998892      27.04921575      21.24045620 
H      26.66137549      22.55913799      19.54142879 
H      23.80056303      23.32306921      21.27992995 
H      23.56758457      15.28803382      31.14489979 
H      43.60200896      16.30783232      20.51585040 
H      44.31354932      24.62409415      26.31250931 
H      24.59686046      19.77924315      34.62359158 
H      30.32700218      21.66389201      37.11616565 
H      39.90738412      21.39696555      31.96823749 
