 364 
 
N                14.6722492982       12.8068916563       26.7398116498
C                16.0985091710       12.8412700184       26.5144138320
C                16.5509463660       11.6731266564       25.6277750560
O                17.5205465570       11.7793464027       24.8840498692
C                16.8750053166       12.8301836520       27.8425015952
C                17.2062559806       11.4101910628       28.3118433086
C                17.3988168722       11.2450240679       29.8171313491
N                18.2747688421       12.2353124827       30.4174741675
C                18.6954760912       12.2151942691       31.6775601962
N                18.6394331575       11.1193033811       32.4264549773
N                19.1661091841       13.3429951368       32.2124587759
H                14.3401248443       12.8682058006       27.6966082991
H                16.3373991777       13.7642773623       25.9684359141
H                17.7925937996       13.3937097065       27.6732124922
H                16.2551092785       13.3485983595       28.5757637340
H                16.3663754459       10.7634421833       28.0661099246
H                18.0692176743       11.0517476580       27.7495140706
H                16.4051244498       11.3250467792       30.2655799249
H                17.8092288000       10.2487295777       29.9823135606
H                18.3799454561       13.0912074668       29.8894339636
H                18.4445594885       10.2110574203       32.0370770576
H                18.9751671877       11.1561282910       33.3767223440
H                19.0901398804       14.2051048873       31.7003478072
H                19.5560385111       13.3767155911       33.1400776000
N                15.9035999886       10.5085496631       25.7849237512
C                16.3288538586        9.3401539566       25.0311246399
C                16.1197748158        9.5317085748       23.5276834054
O                16.9751636312        9.2252211610       22.7013634644
C                15.6244329280        8.0889405511       25.5283082808
C                15.7518763339        6.8894829129       24.5143851872
O                16.8987101575        6.4800767360       24.2715136934
O                14.6679192815        6.4243000832       24.1100909210
H                14.9993036009       10.4624340574       26.2529534512
H                17.4114815163        9.2252847700       25.1680156931
H                16.0873298890        7.7635624614       26.4595536722
H                14.5637321284        8.2872864885       25.6712614271
N                14.9833608999       10.1347337126       23.1688470681
C                14.7429996351       10.5060197367       21.7861445673
C                15.9275817800       11.3051087864       21.2256999544
O                16.2547628922       11.2373817094       20.0473068204
C                13.4575256218       11.3163714078       21.6834290105
H                14.3127027755       10.3999156521       23.8747977400
H                14.6762197281        9.5998114267       21.1651583200
H                13.2892616777       11.5893516098       20.6468889032
H                12.6232573719       10.7116539634       22.0282389660
H                13.5330643862       12.2134145141       22.2928448160
N                16.5246051556       12.1535034476       22.0761102116
C                17.6636995789       12.9236573695       21.6247748621
C                18.8759300096       12.0388737960       21.3555154094
O                19.6919710956       12.3229803368       20.4851073795
C                18.1139969431       14.0138317305       22.6094998104
C                16.9320785081       14.7173599530       23.2861024871
C                19.0352965339       15.0069014248       21.9035358811
C                15.9624820646       15.4947647304       22.4062661128
H                16.3190688778       12.1012940932       23.0616453856
H                17.3740041759       13.3798961302       20.6713028573
H                18.6722109710       13.4980282532       23.3990795295
H                16.3594269241       13.9650700724       23.8253884161
H                17.3538222204       15.4126804405       24.0118806435
H                19.3485045688       15.7724188328       22.6061419461
H                19.9193637731       14.5212349842       21.4977783284
H                18.5143031021       15.4790826478       21.0768368682
H                15.1231765495       15.8000017123       23.0271273928
H                16.4334929477       16.3810633971       21.9919606301
H                15.5611281494       14.8856485363       21.6016553985
N                19.0582217697       11.0027786997       22.1828794618
C                20.0953266653       10.0277318422       21.8852542141
C                20.0132603706        9.6318199392       20.4168395735
O                20.9668481833        9.7379100356       19.6502136245
C                19.9649272640        8.8209834446       22.8107041420
C                21.0059137217        7.7113679817       22.6418433883
C                22.4040857598        8.1919115108       23.0110180960
C                20.6079151410        6.5390546383       23.5429114276
H                18.2901752979       10.6984907913       22.7645422709
H                21.0639147685       10.5287733869       21.9953177501
H                20.0094572629        9.1925543380       23.8364643826
H                18.9830137326        8.3696481809       22.6630901098
H                21.0129095883        7.3684061755       21.5959840140
H                23.0832501221        7.3479856046       22.9750465385
H                22.7618393176        8.9320262402       22.2988605081
H                22.3941456448        8.6156342010       24.0124586548
H                21.2773722290        5.6966045358       23.3919618518
H                20.6472120854        6.8464404868       24.5844330100
H                19.5925772644        6.2067301571       23.3297666333
N                18.7945632146        9.2497336378       20.0122103557
C                18.6003260053        8.7810112216       18.6585129798
C                19.0335188195        9.8048068931       17.6277047119
O                19.3818850616        9.4640629838       16.4918591145
C                17.1392093665        8.4492071089       18.4204587481
C                16.7305547381        7.2774514316       19.3834898825
O                17.4956123562        6.2956054216       19.4085730009
O                15.6787993146        7.4412664703       20.0246549788
H                18.1115667970        8.9808092142       20.7079192698
H                19.1830063041        7.8622266703       18.4906535512
H                16.5169072619        9.3220953798       18.6119891131
H                17.0160410915        8.1120246594       17.3902448694
N                18.9248335286       11.0924955647       17.9521241579
C                19.3115759712       12.1068063317       16.9962347891
C                20.7448543544       11.9353517671       16.4886419262
O                21.0554873692       12.2585752539       15.3504676321
C                19.1919316274       13.4750549720       17.6449737831
H                18.8477394952       11.3740800630       18.9196923597
H                18.6516071011       12.0094351524       16.1246101115
H                19.4805389737       14.2593884701       16.9519011269
H                18.1653436366       13.6108972481       17.9672686540
H                19.8373643704       13.5090241095       18.5172765831
N                21.6300467790       11.5298558580       17.4070807201
C                23.0212674276       11.3974049267       17.0702248503
C                23.3717722373       10.0240985384       16.4562731861
O                24.5310839398        9.7251546693       16.2127207589
C                23.9689585590       11.6416866471       18.2487228673
C                24.0100470710       13.0237167798       18.9359486831
C                24.3718407469       14.1768561423       17.9998426374
C                22.7191351877       13.3508506509       19.6833643375
H                21.2994075661       11.1629256383       18.2898145962
H                23.2047060197       12.1210765355       16.2661776603
H                23.7261430453       10.8806843469       18.9953208543
H                24.9655759273       11.3983562529       17.8716792768
H                24.8090256960       12.9289227162       19.6823435045
H                24.4440898827       15.1069893491       18.5595153783
H                25.3258817489       13.9973804680       17.5115854835
H                23.6030529597       14.3084938003       17.2435254558
H                22.8822186613       14.1412870501       20.4133283870
H                21.9530730283       13.6827552226       18.9902946295
H                22.3392137101       12.4805157185       20.2111332570
N                22.3305075509        9.2463651279       16.1061200981
C                22.4819100244        7.8925840810       15.6214291840
C                22.2497856765        7.7806131603       14.1150797798
O                22.7453091958        6.8829721904       13.4521449679
C                21.4948387449        6.9457865581       16.3149627784
C                21.6864474056        6.9267675890       17.8266823566
C                23.1688719626        6.5939858366       18.1827614948
O                23.5794150496        5.4638227132       17.8505681479
O                23.8208271396        7.4764329838       18.7704684029
H                21.3891410717        9.4911998429       16.3842660714
H                23.5073798221        7.5590000056       15.8247935810
H                20.4815886608        7.2723706891       16.0648324634
H                21.6508385694        5.9369840920       15.9273659761
H                21.4328953318        7.8916056305       18.2695152953
H                21.0425088753        6.1617396432       18.2738406987
N                21.4360986524        8.7055936227       13.5754565403
C                21.1778993135        8.7311305954       12.1518652733
C                22.2952373029        9.4369733761       11.3600095207
O                22.2978765096        9.4365363510       10.1411252319
C                19.8421443682        9.4073921521       11.8513593811
C                18.6918744993        8.6372070003       12.4828262206
O                18.3891263118        7.5094716722       12.1266231390
N                17.9932584526        9.3211916079       13.4026547649
H                21.0464840060        9.4364739874       14.1519618535
H                21.1408787312        7.6902111430       11.8068116316
H                19.8719926961       10.4366134443       12.2041965775
H                19.7091714809        9.3982534582       10.7692501013
H                17.2550009060        8.8608847499       13.9123362179
H                18.3350763911       10.1860278200       13.7869117439
N                23.2067022579       10.0757020010       12.1002977984
C                24.3101887606       10.8018870886       11.5174814657
C                25.5468800859        9.9027497291       11.4150989726
O                25.6172367503        8.8172706259       11.9692888725
C                24.5222343725       12.1267094629       12.2621475273
C                24.8005741244       12.0710711539       13.7693748866
C                26.2459089064       11.7103626647       14.0982520202
C                24.4880583208       13.4514623958       14.3486798654
H                23.2128923186        9.9551701020       13.1001646251
H                23.9828113721       11.0261481223       10.4930797431
H                25.3408953542       12.6763791232       11.7991476479
H                23.5975050980       12.6928211835       12.1263436917
H                24.1457766770       11.3322436129       14.2465979033
H                26.3503485363       11.5746319845       15.1731487308
H                26.5454826169       10.7765915313       13.6287652152
H                26.9025002056       12.5176343362       13.7810377504
H                24.7602660451       13.4857124831       15.3974066658
H                25.0763966936       14.2118037366       13.8390866584
H                23.4308666484       13.6917515225       14.2547952224
N                26.5014975752       10.3428089136       10.5630536020
C                27.7037165983        9.5677737097       10.3787203795
C                28.7879534795       10.0159628892       11.3638584717
O                28.7611970281       11.1000711270       11.9231862257
C                28.2641140895        9.7097670157        8.9486507539
O                28.9141248858       10.9727870280        8.8622668587
C                27.1868494777        9.5806344768        7.8798448448
H                26.5508340967       11.3211971092       10.3253274542
H                27.4255980888        8.5265992118       10.5714088852
H                29.0254513460        8.9248315205        8.8154419208
H                28.8897945792       11.2356266807        7.9326287799
H                27.6458769278        9.6158971867        6.8938774142
H                26.6423166996        8.6471975876        7.9787044040
H                26.4741188283       10.3971605063        7.9641060929
N                30.1674244224       13.2830567857       10.4493079006
C                29.2699404564       14.3470966179       10.8547636597
C                29.6009559387       14.7912821349       12.2870992183
O                29.7867184821       15.9735433122       12.5587601171
C                27.8131100569       13.9088934160       10.7444084391
C                26.8435682965       15.0728449265       10.9076567448
C                26.8752488738       15.7410927597       12.3251430130
O                27.1436856331       15.0097992111       13.2939443016
O                26.5768744412       16.9493346187       12.3659976153
H                29.7760860654       12.4331217003       10.0636122346
H                29.4388965352       15.2165345891       10.2011683159
H                27.6573406086       13.4427468819        9.7663021736
H                27.6238544544       13.1628626396       11.5178636128
H                27.0122643577       15.8485094881       10.1577904938
H                25.8188657802       14.7125903593       10.7765741794
N                29.7444188760       13.8036357940       13.1709719486
C                29.8135301416       14.0481168035       14.6060499592
C                30.8218597604       15.1549294163       14.9074780235
O                30.5931663125       16.0513543102       15.7181656236
C                30.1676303226       12.7164057680       15.2846092091
C                30.2544204110       12.7056405802       16.8207301272
C                31.5291187695       13.3846676519       17.3314877468
C                28.9997408449       13.3176106336       17.4506283541
H                29.5063497618       12.8661622614       12.8749633438
H                28.8291242745       14.4073843126       14.9359660123
H                29.3998143755       12.0008624771       14.9733138389
H                31.1123981280       12.3743582305       14.8577837709
H                30.3036336785       11.6461217086       17.0973431815
H                31.7337529610       13.0732229405       18.3517279523
H                32.3809643161       13.0949050849       16.7214977251
H                31.4261146023       14.4629797163       17.2597699712
H                28.9523326433       13.1345868553       18.5211360497
H                28.9718619287       14.3876772550       17.2629462753
H                28.1061368560       12.8855337465       17.0033975022
N                29.0065055783       11.0616676005       21.2558136525
C                27.5672978822       11.2909469656       21.1599941954
C                26.8935197572       11.0764083243       22.5200432412
O                26.0762515583       11.8631934743       22.9820674201
C                26.9348607002       10.3819451033       20.1123282291
H                29.4636602592       10.5045348997       20.5468987826
H                27.3903324276       12.3387556785       20.8860325589
H                25.8715395004       10.5849259942       20.0177016299
H                27.3979289005       10.5464969693       19.1435588362
H                27.0405783438        9.3300731723       20.3657861136
N                27.2047350209        9.9369155979       23.1594655661
C                26.4748467181        9.5567062488       24.3529448367
C                26.7185489271       10.5526583038       25.4864712704
O                25.8079468953       10.9498555226       26.2199468311
C                26.8783047848        8.1817175576       24.8929873364
C                27.0203564078        7.0714657159       23.8414840509
C                27.2574370041        5.7444405111       24.5615157407
C                25.7752560339        6.9838397341       22.9640180032
H                27.8314834094        9.2679504741       22.7421659725
H                25.4043460751        9.5697842128       24.1094039169
H                27.8145848607        8.2838175330       25.4495218840
H                26.1096227043        7.8880309768       25.6094149457
H                27.8974970684        7.2624284089       23.2110638047
H                27.4069217611        4.9482767107       23.8379717903
H                28.1394080742        5.7971923250       25.1967447479
H                26.4004085842        5.4967689204       25.1822256467
H                25.8926017420        6.2370963765       22.1829456143
H                24.9268657945        6.7052722715       23.5816978815
H                25.5501144148        7.9257010435       22.4701466385
N                24.9447575121       13.4755032262       25.2721512859
C                23.5710717378       13.4815631444       25.7318308770
C                23.5535163625       13.7376733543       27.2366442442
O                23.0051512240       14.7263805008       27.7091527234
C                22.7412459729       12.2476993475       25.3322882712
O                23.0427070392       11.0905587216       26.0735099238
C                22.8463726479       12.0136385343       23.8257140750
H                25.4716311541       12.6189921184       25.2671309272
H                23.1082645224       14.3563403279       25.2602686567
H                21.6986909197       12.4672903560       25.5956489461
H                23.9847348240       10.8771174913       25.9680039037
H                22.3954336151       11.0528775278       23.6010810940
H                22.3261834548       12.7927251993       23.2766835534
H                23.8837735394       11.9933058063       23.5035425121
N                18.4553203851       21.8541575362       20.2734632991
C                18.8719044804       20.7574620077       19.4224434823
C                18.5293269297       21.0730149543       17.9676338287
O                19.3597386759       21.0726625627       17.0680284101
C                18.1854141996       19.4436549253       19.8650798980
O                18.5470484172       19.0983639765       21.1802160696
C                18.5943686738       18.3000888808       18.9448202509
H                17.9399151847       21.6418930898       21.1195972848
H                19.9585324759       20.6258335703       19.4975238940
H                17.0966221601       19.5910328015       19.8044616869
H                18.1645328772       19.7422614017       21.7981964688
H                18.1724422928       17.3752781333       19.3214615241
H                18.2282504786       18.4811262855       17.9411964947
H                19.6747813476       18.1953398224       18.9155608172
N                19.5099540325       17.4840739098        7.9946987783
C                18.9989204649       16.1504797290        7.7851418088
C                17.5038819591       16.0957946281        8.0560200739
O                16.9777487266       16.6908026981        8.9859942240
C                19.6644763354       15.1492061348        8.7416941475
C                21.1335591287       14.9181026697        8.4001378040
C                21.8191822809       14.1588629940        9.5241369635
O                21.3873584151       13.1107250399        9.9797440740
N                22.9266751760       14.7577793263        9.9878899673
H                19.4638438157       17.8532642207        8.9319954096
H                19.2113097029       15.8931771004        6.7440223577
H                19.5888223483       15.5540306204        9.7531439894
H                19.1370933817       14.1956346785        8.7195188564
H                21.2131771548       14.3334690306        7.4833219192
H                21.6414568929       15.8667627342        8.2412871256
H                23.2586859270       15.6225519603        9.5911492598
H                23.4449990520       14.3475645521       10.7502673921
N                16.0539933007       13.8243422195        9.4445867131
C                15.9009986824       13.3385850199       10.8045036777
C                15.8001181641       14.4624026395       11.8522157866
O                15.3405785393       14.2270158360       12.9643188131
C                17.0317202966       12.3703694330       11.1718744114
C                18.4198512194       13.0159159571       11.1940437445
S                19.3286897642       12.7726244510       12.7559059080
C                18.3173053272       13.7659622549       13.8901395340
H                16.7780443980       13.4023511453        8.8836887393
H                14.9554310520       12.7813452837       10.8526770864
H                16.8005291425       11.9551227338       12.1535039195
H                17.0142637432       11.5379417791       10.4673682152
H                19.0944310124       12.5725358653       10.4636474893
H                18.3770288041       14.0896821058       11.0148000464
H                18.8823111637       13.7835099880       14.8122809471
H                18.2177620081       14.7688759241       13.4913080304
H                17.3396884733       13.3208662953       14.0520158389
N                12.4044977178       14.4683770623       12.3449612383
C                12.0742114553       13.2094535941       12.9926020202
C                12.1301329764       13.3831258086       14.5145114684
O                11.2775687964       12.9064083973       15.2521154342
C                13.0386205050       12.0952356289       12.5865424994
C                12.7623373771       10.7984965145       13.3501227062
C                13.4356820034       10.7803189651       14.7161523588
O                14.6031039001       11.1056290956       14.8711632389
N                12.6867635867       10.2875600020       15.7160331555
H                12.9930743239       14.4794387142       11.5218005524
H                11.0458026339       12.9203873961       12.7335532018
H                12.9360375645       11.9233004113       11.5136351874
H                14.0575204145       12.4131582667       12.8134336968
H                11.6913122199       10.6323885759       13.4490094959
H                13.1955905544        9.9645756206       12.7938835859
H                11.6865503094       10.2185928689       15.6423445682
H                13.0906880325       10.2298900993       16.6387359485
N                13.1844848000       14.0619670671       14.9748700709
C                13.3307157256       14.2268069637       16.4064607617
C                12.1731004521       15.0657790120       16.9339027308
O                11.5080092739       14.7364658693       17.9174707941
C                14.6613356302       14.8752237264       16.7736933446
C                14.8120429016       15.0366391401       18.2927304349
C                14.6330619652       13.7019044518       19.0138988205
C                16.1680895278       15.6580140197       18.6037316911
H                13.9486433892       14.3169287023       14.3605984046
H                13.2430148261       13.2429089264       16.8786234142
H                15.4697039737       14.2499291780       16.3909537557
H                14.7275130179       15.8470606228       16.2807568444
H                14.0388851746       15.7173627714       18.6518344464
H                14.8557583327       13.7931536516       20.0736278543
H                13.6063405410       13.3497060944       18.9430647974
H                15.2878303525       12.9393228096       18.5994385620
H                16.2883105145       15.7809967940       19.6744489453
H                16.9639461788       15.0211025097       18.2341550140
H                16.2621731559       16.6265879274       18.1241640627
H                14.2838871009       13.4974485289       26.3128385717
H                29.5567732771        9.4108229817       11.5705510240
H                30.7234629125       13.5863476394        9.8099051671
H                31.7050924617       15.1678968694       14.4387223938
H                29.4385299398       11.8509079907       21.2344932961
H                27.6396092628       10.9043819725       25.6536188660
H                24.9765713581       13.7537460941       24.4168333417
H                23.9956238461       13.0917166655       27.8589632373
H                19.1797456262       22.3082946804       20.5544749079
H                17.5880338272       21.2936905390       17.7121547073
H                20.3806859488       17.5111025660        7.7686559023
H                16.9073800495       15.5567822619        7.4613343241
H                15.2889878649       13.6902919004        8.9898371170
H                16.1096564245       15.3860207681       11.6261281533
H                11.6483139619       14.8743058485       12.0740222270
H                11.9271285321       15.9211569248       16.4780228772
