 176 
 
N               136.3266247610       67.3490791944      130.0337692722
C               137.7296830259       67.1007471417      129.7904170008
C               137.8489887791       66.4058378396      128.4425052108
O               138.6742557129       66.7539676203      127.6040367764
C               138.3332134007       66.2240377598      130.8746225548
C               138.3409161256       66.9333235594      132.2772558415
O               138.6058241772       68.1469675906      132.2922846407
O               138.1054595463       66.1995459021      133.2542029949
H               135.9370973417       67.0404287634      130.9200857266
H               138.2811170583       68.0510653877      129.7432045040
H               137.7869327338       65.2854773740      130.9585381770
H               139.3729496414       66.0077881007      130.6177247182
N               137.2754327783       68.6251494826      125.6379994752
C               138.4589088559       69.4423730009      125.5065573662
C               139.6019340595       68.6815647750      124.8364372603
O               140.3186609775       69.2292195173      123.9944898194
C               138.8950142124       69.9218889712      126.9031334876
O               139.9471323431       70.8386402697      126.8622914567
H               136.9058611337       68.4834123166      126.5731007412
H               138.2298117278       70.3154416850      124.8735161188
H               138.0146036996       70.3400123300      127.4087200568
H               139.2470134095       69.0595761391      127.4757058742
H               139.6365500150       71.6552834829      126.4455834480
N               139.7830952903       67.4273759818      125.2193691944
C               140.7757855754       66.5836410955      124.5831414963
C               140.4911007944       66.6071640172      123.0848845790
O               141.3517843276       66.9097655335      122.2603152153
C               140.7395653322       65.1496318791      125.1345890223
C               141.3014558504       65.1373284406      126.5600618459
C               141.5337019127       64.2197043076      124.2177108304
C               141.0679150405       63.8247773560      127.2976318014
H               139.2296202009       67.0396400305      125.9770025236
H               141.7762995856       67.0120436867      124.7347408193
H               139.6923411941       64.8331341221      125.1547089869
H               142.3711535416       65.3409073043      126.5172730407
H               140.8372405866       65.9418587556      127.1326308187
H               141.5255059221       63.2095161050      124.6142936535
H               141.1039744260       64.1983981470      123.2190805404
H               142.5641280305       64.5563994696      124.1361316796
H               141.4277033023       63.9158464482      128.3193339592
H               140.0058321333       63.5924106452      127.3337637271
H               141.5913464361       63.0019437990      126.8209075525
N               141.2128589060       70.1961628657      121.5237861377
C               142.6165497342       70.5324627042      121.4359283552
C               143.2871940402       69.6985676596      120.3430997726
O               144.0593445685       70.2026112017      119.5338558691
C               143.3269730619       70.3375643933      122.7981872350
O               143.1832392308       69.0253614376      123.2783562534
C               142.8307714026       71.3631703117      123.8152759574
H               140.8503565042       69.7756361182      122.3709222640
H               142.7156761447       71.5821075388      121.1305958832
H               144.4016249213       70.4683237175      122.6226525480
H               142.2611804720       68.9114308235      123.5624983661
H               143.3975161853       71.2625981479      124.7366010489
H               142.9490864875       72.3712324485      123.4327914753
H               141.7817809437       71.1823361628      124.0379046344
N               149.6078446558       68.3763532635      123.9592527444
C               149.2086401880       67.6149340417      125.1201219996
C               147.9074764833       68.1464078324      125.7146835380
O               147.5825377600       69.3211537713      125.6290964809
C               150.3173526953       67.6191210398      126.1934793412
C               150.7050092701       69.0131323493      126.6847075929
C               149.6272935167       69.6896545861      127.5077721737
O               148.9151367903       69.0771122299      128.3007863288
N               149.5639957516       71.0175142684      127.3872563559
H               149.4137971436       69.3663009373      123.9754087588
H               149.0643149245       66.5806992810      124.7955181255
H               149.9816582337       67.0000567599      127.0257283351
H               151.1974619512       67.1683489105      125.7356296175
H               151.5765930392       68.9177756988      127.3370485329
H               150.9949773924       69.6318197927      125.8367163632
H               150.1016603186       71.5066651753      126.6930779016
H               148.8563976979       71.5255632060      127.8923661030
N               147.2014784188       67.2036582800      126.3579125199
C               146.1100002185       67.4971259968      127.2587387900
C               146.5296070300       66.9269703318      128.6127076627
O               146.7681921002       65.7329851077      128.7460389956
C               144.7845230530       66.8563593280      126.8145693134
C               143.7133566468       67.1972953775      127.8140342704
C               142.9484964135       68.3462966707      127.6633215412
C               143.5056340304       66.3967725637      128.9315649297
C               141.9984131613       68.6919800405      128.6086919984
C               142.5525383431       66.7376173857      129.8749212765
C               141.7966470832       67.8881220154      129.7185847656
H               147.5229323432       66.2404488672      126.3248186920
H               146.0062367362       68.5848424089      127.3018036918
H               144.5272917422       67.2388825295      125.8258021890
H               144.9289114033       65.7761413306      126.7600242701
H               143.0878993290       68.9740196050      126.7951815278
H               144.0865208477       65.4953202684      129.0586455931
H               141.4157735001       69.5904183887      128.4746298621
H               142.3904617401       66.1070317339      130.7383743577
H               141.0518993349       68.1508583544      130.4588287241
N               146.7013145951       67.8052725772      129.6033678199
C               147.1919983300       67.3880568581      130.9011102510
C               148.3640377082       66.4005761928      130.7600626712
O               148.4573855541       65.3965190377      131.4486300877
C               146.0998393788       66.7455306132      131.7613184814
C               146.6229989761       66.5737506429      133.1808569811
O               147.3450958564       67.4056801547      133.7097607441
N               146.1942765636       65.4772835887      133.8177331650
H               146.5168103841       68.7826207090      129.4485624963
H               147.5749799485       68.2668386591      131.4307731549
H               145.2250532700       67.3987139210      131.7893492660
H               145.8130867929       65.7853382983      131.3358980621
H               146.5173368264       65.2999223779      134.7550683511
H               145.6517456635       64.7754379546      133.3455432273
N               149.2937405819       66.7746778253      129.8684976074
C               150.4971457637       66.0091978089      129.6537085901
C               150.4163993605       64.9430611655      128.5617612664
O               151.4287211050       64.5884746868      127.9570251577
H               149.1411815990       67.6098870020      129.3000120279
H               151.3201424658       66.6925838330      129.4376543176
H               150.7151835497       65.4694893766      130.5847569477
N               149.2279843032       64.3896600134      128.3677981361
C               149.0251693572       63.2641270210      127.4730772759
C               149.2358162603       63.7387188816      126.0320895153
O               148.6071576169       64.6844792284      125.5672928522
C               147.6091290891       62.6993149087      127.6598963920
C               147.3266069509       61.6176942482      126.6187263217
C               147.4465449524       62.1410858142      129.0715797465
H               148.3968951243       64.7859311332      128.7943597586
H               149.7700192392       62.4988223280      127.7215191239
H               146.9051646637       63.5255249689      127.5218300359
H               146.3245141417       61.2232645758      126.7622136787
H               147.3900735459       62.0169919955      125.6086243067
H               148.0319573712       60.7955072496      126.7163705823
H               146.4306267478       61.7811921626      129.2099163641
H               148.1292510193       61.3104151379      129.2355302965
H               147.6376056889       62.9034398454      129.8233340213
N               150.1808579944       63.0874336752      125.3519545451
C               150.6388621773       63.4450306621      124.0169826182
C               149.6788050166       62.8341060705      122.9804210571
O               149.8895457232       61.7721953403      122.4059147561
C               152.0734687109       62.9630529235      123.8120556566
C               153.0451193040       63.4538434867      124.8863004391
C               153.0804295548       64.9794726049      124.9592928590
C               154.1952367695       65.5081717840      125.8492461652
N               154.0691409726       64.9684144000      127.2350457052
H               150.5869918119       62.2496796826      125.7432290328
H               150.5808581175       64.5330056518      123.9108014042
H               152.0713460294       61.8720673044      123.7853470112
H               152.3997615106       63.3248464664      122.8368652808
H               152.7474001371       63.0405805644      125.8498873567
H               154.0335207782       63.0787049587      124.6221775793
H               153.2318780345       65.3789891326      123.9565998757
H               152.1217192672       65.3414460598      125.3275402516
H               155.1626595764       65.2223175138      125.4371369245
H               154.1327829525       66.5961205696      125.8816971338
H               154.6353508525       65.5153798123      127.8940276204
H               153.0623866403       64.9728739480      127.5437522673
H               154.3828429527       63.9907797865      127.2569746460
N               148.5926028110       63.5885595109      122.7894001438
C               147.3975152266       63.1744386206      122.0861148390
C               147.6213284207       62.7119598349      120.6428593652
O               146.7922060303       61.9936024093      120.1040642204
C               146.3418623815       64.3012453598      122.1228821829
C               145.8134587191       64.5151357530      123.5404550382
C               146.8903840947       65.6061014440      121.5519877578
H               148.4926946806       64.4117836123      123.3716495433
H               146.9769627184       62.2888574949      122.5869566331
H               145.5067736399       63.9776059807      121.4949422298
H               145.0800477311       65.3157116746      123.5208872461
H               145.3297475167       63.6134536194      123.9068998169
H               146.6081736917       64.7920062951      124.2296858210
H               146.0972571281       66.3479930276      121.5465013141
H               147.7223574246       65.9876787502      122.1398428412
H               147.2303604522       65.4643434795      120.5298942700
H               136.1685556551       68.2345660795      130.0033203949
H               137.2442270519       65.6415107712      128.2187477843
H               136.6016879916       68.9945525079      125.1693745001
H               139.5805331900       66.3716234102      122.7451975757
H               140.7183877097       70.9407968507      121.4188172644
H               143.0999812835       68.7185258075      120.2762465611
H               150.4976497163       68.3049651863      123.8445762574
H               148.4417302970       62.9979161917      120.1477132015
