 493 
 
N               138.8033688861       68.7110025578      121.3170778078
C               138.9383659861       70.0302911177      120.7298539019
C               140.3964680779       70.3951855100      120.4918168109
O               140.7705314085       70.9042381204      119.4388933024
C               138.3054182278       71.0762360929      121.6439391365
C               136.7861012765       70.9811530429      121.6175427868
C               136.1276780709       71.7465636673      122.7504501007
O               136.7332120666       72.1255135950      123.7448709397
N               134.8226813557       71.9820853228      122.5462169913
H               138.1926467568       68.6197801978      122.1220936700
H               138.4405452883       70.0443045530      119.7486669869
H               138.6644449683       70.9219681718      122.6632941679
H               138.6168563410       72.0712544720      121.3225685070
H               136.3998830823       71.3342077149      120.6618444416
H               136.4790470520       69.9397432449      121.7369329422
H               134.3254343413       71.4123888280      121.8701527820
H               134.2886556186       72.3706266627      123.3078717855
N               141.2128589060       70.1961628657      121.5237861377
C               142.6165497342       70.5324627042      121.4359283552
C               143.2871940402       69.6985676596      120.3430997726
O               144.0593445685       70.2026112017      119.5338558691
C               143.3269730619       70.3375643933      122.7981872350
O               143.1832392308       69.0253614376      123.2783562534
C               142.8307714026       71.3631703117      123.8152759574
H               140.8503565042       69.7756361182      122.3709222640
H               142.7156761447       71.5821075388      121.1305958832
H               144.4016249213       70.4683237175      122.6226525480
H               142.2611804720       68.9114308235      123.5624983661
H               143.3975161853       71.2625981479      124.7366010489
H               142.9490864875       72.3712324485      123.4327914753
H               141.7817809437       71.1823361628      124.0379046344
N               142.9709585991       68.4059074640      120.3517146540
C               143.5074913550       67.5020665460      119.3583665187
C               143.1038735876       67.9685166322      117.9606089665
O               143.9210410006       68.0034217344      117.0462214463
C               143.0366195524       66.0549161584      119.6327030783
O               143.4204330687       65.6416655335      120.9200904583
C               143.6633762541       65.0916126293      118.6317829663
H               142.3390568678       68.0390650638      121.0524764676
H               144.6050314081       67.5322955774      119.4037153966
H               141.9394615978       66.0446552770      119.5417150996
H               142.8425752282       66.0682024792      121.5705295820
H               143.2868404934       64.0902819007      118.8157393190
H               143.4277311355       65.3909437530      117.6161894728
H               144.7404646857       65.0859150564      118.7701089998
N               141.8264692777       68.3093633665      117.8156331895
C               141.2935382108       68.8068836786      116.5673352871
C               142.0392237554       70.0641268197      116.1299809118
O               142.3417755210       70.2400309441      114.9552701117
C               139.8099563222       69.1581790698      116.6903477247
C               138.8944028096       67.9624571086      116.9250220197
C               137.6265069241       68.3560511919      117.7306430067
O               137.4246231270       69.5595784453      117.9742499957
O               136.8808481073       67.4120861275      118.0917106470
H               141.1824211467       68.2384857896      118.5946311591
H               141.4463935927       68.0515798522      115.7832083496
H               139.6916397111       69.8506509391      117.5271682104
H               139.5014890433       69.6878820397      115.7877194001
H               138.5663838342       67.5028760341      115.9915367351
H               139.3961119954       67.1983689170      117.5172860410
N               142.3032951573       70.9477972490      117.0910354642
C               143.0097268450       72.1756930852      116.7929051526
C               144.3564849905       71.8548014689      116.1441213960
O               144.7133383128       72.3613741697      115.0846772117
H               141.8772211920       70.8532520265      118.0078159778
H               142.4348649554       72.8027015035      116.1039920057
H               143.1745759204       72.7132411433      117.7255154634
N               145.0875765527       70.9752111687      116.8238326132
C               146.3874263459       70.5293415751      116.3565420138
C               146.2710634510       69.9099139586      114.9619023905
O               147.0440250651       70.2221441062      114.0586254214
C               146.9591127791       69.5361423119      117.3552600393
H               144.7595507885       70.6209983523      117.7176624223
H               147.0508948836       71.3994417938      116.2553365525
H               147.9336658274       69.1885678366      117.0278212837
H               147.0718915854       70.0255552456      118.3180125666
H               146.2814809153       68.6917830285      117.4562326134
N               145.2995654491       69.0142934381      114.8034627095
C               145.0708117139       68.3951647862      113.5153728342
C               144.8188095360       69.4538312840      112.4482297453
O               145.2756176120       69.3217933730      111.3160226043
C               143.8760474509       67.4427664249      113.5374936380
C               144.1123188056       66.1478934110      114.3247749781
C               142.8144703094       65.3402203541      114.3458580460
C               145.2317534530       65.3047598389      113.7190017621
H               144.7015697676       68.7475509374      115.5792364994
H               145.9776269947       67.8604421410      113.2061050725
H               143.0272780842       67.9841492162      113.9595625579
H               143.6320277841       67.1887275138      112.5037716452
H               144.3783473540       66.4098070760      115.3530415294
H               142.9351800966       64.4355164643      114.9357717916
H               142.0032796144       65.9203841850      114.7806940833
H               142.5251978768       65.0504497291      113.3376467431
H               145.2600117622       64.3344439141      114.2067894762
H               145.0544912120       65.1504520993      112.6571916025
H               146.2026212835       65.7744313891      113.8480504588
N               144.0602779671       70.4825057049      112.8105614237
C               143.7631008434       71.5620878081      111.8955440053
C               145.0573957412       72.2638219346      111.4792390108
O               145.2465081936       72.5717265931      110.3003864634
C               142.7940542382       72.5501054337      112.5382241463
C               141.4019645538       71.9549777207      112.7105876691
O               141.0502177970       70.9176357967      112.1677320455
N               140.5753078652       72.6941406995      113.4556559383
H               143.5935195534       70.4872555164      113.7121871405
H               143.3209861026       71.1477681858      110.9782847601
H               143.1941460724       72.8503388389      113.5077962989
H               142.7131959016       73.4383912641      111.9083744285
H               139.6339045882       72.3723428200      113.6206303174
H               140.8832576983       73.5510845777      113.8827370677
N               145.9451824646       72.4798624069      112.4382593680
C               147.2335944121       73.0723794842      112.1368242550
C               147.9852514964       72.1923253295      111.1441840955
O               148.5576635542       72.6580593653      110.1564943622
C               148.0662589061       73.2365956043      113.4090869363
C               147.5957831636       74.4362000665      114.2268868724
C               147.8646896076       75.7399294417      113.4087680568
O               149.0373119053       76.1634788662      113.4160944450
O               146.8958040466       76.2299743915      112.7920262423
H               145.7018960466       72.3148945846      113.4111783284
H               147.0886205047       74.0582382450      111.6728068801
H               148.0013510113       72.3123612407      113.9882960722
H               149.1089587021       73.4082254067      113.1285190456
H               146.5309626474       74.3630054596      114.4500303494
H               148.1660060518       74.4939975903      115.1552949517
N               148.0130977849       70.8973748578      111.4378098277
C               148.6838211631       69.9449763071      110.5715885549
C               148.0822702030       70.0341445454      109.1645431512
O               148.7909616247       70.1428532171      108.1708896312
C               148.5937190819       68.5319248245      111.1700073870
C               149.5098206090       68.4631523043      112.3991268801
C               148.9583970542       67.4819718930      110.1230440421
C               149.2984610191       67.2208838788      113.2532411407
H               147.5671304530       70.5590270469      112.2869231493
H               149.7389921908       70.2377054016      110.4715923634
H               147.5563984874       68.3761767596      111.4812957061
H               150.5494258468       68.5009507807      112.0680902998
H               149.3267310095       69.3402211981      113.0226402631
H               148.9123246998       66.4874547172      110.5548705966
H               148.2663543514       67.5233022606      109.2863896303
H               149.9613391355       67.6545961234      109.7432934105
H               150.0167077619       67.2136295068      114.0685951823
H               148.2971796898       67.2224351797      113.6767527239
H               149.4353491542       66.3105579897      112.6778911079
N               146.7535603344       69.9819629635      109.1307539585
C               145.9880235484       70.0704941615      107.9043875413
C               146.4428398514       71.2894031057      107.0922144596
O               146.7622944821       71.1676759582      105.9169231796
C               144.4979529332       70.1180654288      108.2500929311
C               143.6222729980       70.1992643504      107.0076995069
O               143.7840492405       71.0522055299      106.1540104123
N               142.5879852245       69.3307563534      106.9728392438
H               146.2292830690       69.8467656271      109.9921808749
H               146.1993151195       69.1922268022      107.2761950193
H               144.2452825465       69.2487243673      108.8567053805
H               144.3227219609       71.0260599060      108.8332787129
H               142.0323611044       69.3232429673      106.1285426336
H               142.5858552317       68.4473185831      107.4662672941
N               146.5238008951       72.4336153219      107.7680250514
C               146.9624659511       73.6579227053      107.1256011383
C               148.3237078432       73.4429943689      106.4648832606
O               148.5619410648       73.8244069048      105.3247077237
C               147.0884771171       74.8176854961      108.1235710866
C               145.8075122536       75.6367569200      108.2048759356
O               145.7244190835       76.7569045987      107.7250606607
N               144.7847457067       75.0382239012      108.8245564787
H               146.2267190269       72.4752424363      108.7350437836
H               146.2480524573       73.9249436190      106.3325408605
H               147.3569280326       74.4320416841      109.1080132508
H               147.8759910700       75.4946075111      107.7894328298
H               143.9143731058       75.5373093221      108.8931136554
H               144.8877715003       74.1481607800      109.2873480136
N               149.2454553753       72.8514478351      107.2293953956
C               150.5720007241       72.6156454446      106.6933799184
C               150.4494135015       71.7802965122      105.4054977560
O               151.1000517045       72.0696587685      104.4066664635
C               151.4800751565       71.9199902706      107.7152356748
C               152.0976704687       72.9267797793      108.6770949299
O               153.1970516820       73.4226786141      108.4679863388
N               151.3587066788       73.2454515404      109.7430304866
H               149.0476298062       72.6299853655      108.1965178974
H               151.0187954512       73.5745449213      106.3939767524
H               150.9038883635       71.1673508617      108.2521342867
H               152.3040393644       71.4367315032      107.1883763348
H               151.7182879461       73.9145562097      110.4056177459
H               150.4115882354       72.9198797983      109.8855495273
N               149.6217433726       70.7430107052      105.4591597339
C               149.4368613646       69.8721723717      104.3151874052
C               148.7921771149       70.5890081259      103.1217484523
O               149.0798755067       70.2711195860      101.9705749261
C               148.6053127795       68.6521743576      104.7141607280
C               149.2992045936       67.7572611455      105.7515958397
C               148.3288218420       66.6826675987      106.2407264518
C               150.5445710968       67.0957806554      105.1699186144
H               149.1234981916       70.5217009889      106.3173023952
H               150.4242314722       69.5547868665      103.9582918191
H               147.6577898862       69.0167059536      105.1132230109
H               148.3983770277       68.0722732986      103.8135231881
H               149.5865331841       68.3710473549      106.6096615989
H               148.7861411486       66.0896492859      107.0283275777
H               147.4225270018       67.1341392419      106.6359068486
H               148.0499086458       66.0152541471      105.4284480349
H               150.9735657514       66.4111301294      105.8958992370
H               150.2844823829       66.5388299205      104.2738671251
H               151.3039159056       67.8287856669      104.9143120432
N               147.9051259173       71.5408483658      103.4050138498
C               147.3047770329       72.3521722259      102.3657722796
C               148.3897078642       73.1517900003      101.6303483392
O               148.4078007333       73.2549901437      100.4090162206
C               146.2726326862       73.3118870148      102.9548858100
C               145.0332172102       72.5876411251      103.4868872578
C               144.1462948069       73.5609882796      104.2423416168
O               144.5596368524       74.2378259833      105.1728594967
N               142.8800248864       73.6463503939      103.8121413580
H               147.6262949136       71.7103898195      104.3653623921
H               146.8369701874       71.6972391104      101.6188134947
H               146.7391246031       73.8747163328      103.7654792150
H               145.9796393952       74.0240481866      102.1807807270
H               144.4815872812       72.1214105144      102.6729812329
H               145.3308952736       71.8201426572      104.2039613590
H               142.5312401366       73.0693924170      103.0678484232
H               142.2430544605       74.2601333972      104.2917824945
N               149.3050040256       73.7067739319      102.4233139452
C               150.4322881749       74.4261593080      101.8620645208
C               151.2336619162       73.4675887350      100.9755913380
O               151.6663859424       73.7903291181       99.8738889970
C               151.3138294184       74.9642965926      102.9889900610
C               152.3268162452       75.9933570961      102.4899034216
C               151.6786776748       77.3726609195      102.3815595718
N               152.6407143582       78.3529823638      101.9221960432
C               152.4492227567       79.2879911728      100.9954367915
N               151.3166198306       79.3934896347      100.3180174309
N               153.4362821579       80.1714898992      100.7803028497
H               149.2029130467       73.6749819706      103.4306323541
H               150.0715213277       75.2416781638      101.2200812788
H               150.6689780758       75.4216314772      103.7422704466
H               151.8172990323       74.1152636675      103.4519025686
H               153.1681052421       76.0511557294      103.1809613257
H               152.7029559540       75.6901464062      101.5119966171
H               150.8414629868       77.3287720105      101.6895493039
H               151.3031624752       77.6759767965      103.3649434234
H               153.5229968787       78.3442698766      102.4191117291
H               150.6332551822       78.6122794973      100.2405915633
H               151.2560886718       80.0698329431       99.5751480248
H               154.2593370268       80.1708608571      101.3570492965
H               153.3212437659       80.9149263566      100.1135504007
N               154.8660070263       69.7743701296      111.4409423599
C               153.9024307136       68.7248933494      111.7047120844
C               154.3984993938       67.8678642597      112.8684013733
O               153.6642015348       67.5639465467      113.8062851437
C               153.6479816624       67.8692780690      110.4523590517
C               152.8571270956       68.6948206100      109.4288244548
C               152.9314652991       66.5753458672      110.8358472170
C               152.6474390799       67.9755347020      108.1015231604
H               155.1979698891       69.9065956360      110.4915349057
H               152.9585166476       69.1810036528      112.0436137591
H               154.6242420463       67.6075548970      110.0304100922
H               151.8887805059       68.9594631951      109.8594360488
H               153.4016830186       69.6220768995      109.2437017274
H               152.7046161306       65.9885645407      109.9514769797
H               153.5685572228       65.9680999859      111.4776982963
H               152.0096165884       66.7857700837      111.3727754149
H               152.2125066682       68.6581967760      107.3769552600
H               153.5981436899       67.6129449632      107.7180987290
H               151.9800618210       67.1262859108      108.2128226066
N               154.4497597983       69.4499580524      116.3534426321
C               153.0884990467       69.4084259898      116.8495327817
C               152.7643837376       68.0074482038      117.3680922354
O               152.2830169553       67.8332006131      118.4890007712
C               152.1012236664       69.8418395488      115.7539438422
C               150.6598590035       69.5899951104      116.1903965226
C               152.2961412835       71.3199942405      115.4262487702
H               154.5932912052       69.6742059175      115.3769064677
H               153.0053027509       70.0890193374      117.7094207735
H               152.3189706441       69.2434525670      114.8628272083
H               149.9785644944       69.9418276763      115.4200074186
H               150.4824492292       68.5282707756      116.3439583241
H               150.4425743797       70.1190223102      117.1149332023
H               151.5962357753       71.6285721033      114.6533671171
H               152.1191084948       71.9354939463      116.3040093335
H               153.2987157630       71.5208390068      115.0579226424
N               152.0010375683       68.4165422095      121.4139556990
C               150.6284457026       68.7197745457      121.7770596344
C               150.2002534701       67.7870689652      122.9113692993
O               150.3781529792       66.5797172938      122.8453474725
C               149.6850746552       68.5400271235      120.5675785441
O               150.1248371894       69.3071430118      119.4757752710
C               148.2777921197       69.0007820933      120.9352278645
H               152.1925227322       68.0394046817      120.4947524166
H               150.5877969663       69.7632974695      122.1129926921
H               149.6739020525       67.4707172739      120.3066196603
H               150.8984313790       68.8703501297      119.0764969324
H               147.5995777125       68.7774163591      120.1184106806
H               147.9256166767       68.5020418719      121.8319953815
H               148.2820274541       70.0759065504      121.0934498775
N               148.7317593968       63.1413983918      120.0231362133
C               149.0484013113       62.7811536666      118.6591820315
C               150.2640476311       61.8674733814      118.5347381874
O               150.7475902476       61.6140481889      117.4339154137
C               149.2869052369       64.0236502419      117.7976077340
C               148.0526090637       64.9002972779      117.5782175365
C               148.4661796205       66.1388068001      116.7870799637
C               146.9439740797       64.1507532700      116.8465176074
H               149.3542809541       63.7875314507      120.4870694742
H               148.2031276047       62.1992453419      118.2721807511
H               150.0766317184       64.6071339609      118.2796890819
H               149.6573499191       63.6791456561      116.8304185871
H               147.6681084371       65.2202230457      118.5522502798
H               147.6028494645       66.7629549255      116.5774777270
H               149.1869821056       66.7271756186      117.3512992521
H               148.9133486997       65.8414135595      115.8420537569
H               146.1208116163       64.8241945989      116.6257142647
H               147.3163080716       63.7390616911      115.9127702434
H               146.5574109684       63.3315785275      117.4477199328
N               150.0112814749       60.7350717405      114.7022556580
C               149.9550340774       61.5144998901      113.4786674168
C               151.2573052896       62.3078884191      113.3850111420
O               151.4980356542       63.2331486910      114.1474806058
C               148.7581379380       62.4806183681      113.4612947215
C               147.4343965859       61.7323418160      113.6568542065
C               148.7767448046       63.2869818004      112.1632885553
C               147.1693531439       60.6396460298      112.6253095850
H               150.0887035996       61.2405085760      115.5817692904
H               149.8764844712       60.8221935594      112.6399318217
H               148.8852801498       63.1712679790      114.3021063185
H               147.4223861933       61.2890201354      114.6558434731
H               146.6243486453       62.4616543558      113.6095032071
H               147.8988345359       63.9253301135      112.1150223182
H               149.6655149465       63.9113065061      112.1202033079
H               148.7829025069       62.6274659059      111.3000608235
H               146.1697452558       60.2392936710      112.7626407873
H               147.2394875119       61.0232306270      111.6118987963
H               147.8677621198       59.8135325432      112.7296131041
N               145.9863094628       63.6826707244      103.9812902391
C               144.8907866452       64.4951392062      104.4672926438
C               143.6880820189       63.6172824704      104.8000812889
O               143.1074055738       63.7261082195      105.8760341396
C               144.5136601506       65.5963913121      103.4790555243
C               145.3090642647       66.8850706756      103.7321807954
C               145.2197925425       67.8120472526      102.5225468794
C               144.7787433129       67.5949052183      104.9757810758
H               146.2931300379       63.7875541853      103.0200543424
H               145.1975378450       64.9314699196      105.4263988278
H               144.6910287151       65.2192627780      102.4699517542
H               143.4451191349       65.8027927889      103.5827692883
H               146.3577281769       66.6168361801      103.8850176034
H               145.7879062579       68.7205017395      102.7112383978
H               145.6340988097       67.3139037905      101.6492847952
H               144.1773138907       68.0742727756      102.3521186291
H               145.2226140147       68.5830889681      105.0704508090
H               143.6987732453       67.7029293160      104.9031235916
H               144.9886023739       67.0235706950      105.8764949481
N               144.0258121403       62.2806891526      108.2118000163
C               143.7543798855       63.3002987886      109.2054450902
C               142.2488657289       63.4858881026      109.3839277905
O               141.7021943617       63.4659055332      110.4882637858
C               144.4063533702       64.6339697170      108.7972699938
C               143.8901132821       65.7732520819      109.6774517310
C               145.9266606074       64.5195674656      108.8783581360
H               144.6325275336       62.5113636210      107.4341913483
H               144.1477379764       62.9616985929      110.1750786543
H               144.1106180343       64.8275283735      107.7613402865
H               144.5307575743       66.6441803931      109.5703109367
H               142.8749896286       66.0397195041      109.3922001849
H               143.8832194335       65.4641888335      110.7197721478
H               146.3861276925       65.4595801491      108.5864088153
H               146.2322992336       64.2798236534      109.8935697476
H               146.2869486038       63.7415464567      108.2116708293
N               141.6040998879       63.7829766277      108.2604015807
C               140.2361198696       64.2379257398      108.2538077137
C               139.2645581829       63.1757159486      108.7632754113
O               138.3024447208       63.4949939441      109.4586998443
C               139.8742950107       64.7009880736      106.8489146116
C               140.7504905426       65.9259861040      106.3916832209
O               141.0512598994       65.9823207696      105.1949787769
O               141.0510716667       66.7669030466      107.2666196039
H               142.0847373809       63.7276509320      107.3702447697
H               140.1531006005       65.0897233694      108.9466515151
H               140.0240564374       63.8870838481      106.1379909549
H               138.8244419102       64.9992896526      106.8141405987
N               139.7942666673       61.1019487000      110.9598488416
C               139.9593665334       60.9787518587      112.3892464528
C               139.3239060132       62.1940678080      113.0653188611
O               138.6119618741       62.0801851503      114.0615989056
C               141.4377299987       60.8343432630      112.7479977885
C               142.0554076954       59.5679071773      112.1423706445
C               143.5754399947       59.6634962730      112.2307617417
C               141.5466760314       58.3055888908      112.8344480187
H               140.4137135363       61.7506667302      110.4922705328
H               139.3879897898       60.1021809908      112.7168078505
H               141.9616257216       61.7102468671      112.3599029735
H               141.5332637767       60.8124779125      113.8348132529
H               141.7761305057       59.5243246245      111.0853677508
H               144.0363136803       58.7555614160      111.8513331669
H               143.9217269729       60.4993612983      111.6297987826
H               143.8769127800       59.8130629740      113.2639844192
H               142.0199371230       57.4246721532      112.4080171349
H               141.7597958602       58.3384486281      113.9010709950
H               140.4698076501       58.1915303479      112.7161103477
N               139.5647431524       63.3769529582      112.4917515936
C               138.8855887780       64.5719381312      112.9527379419
C               137.3945083771       64.2605951867      113.1374357354
O               136.7878497023       64.5790180267      114.1556723625
C               139.0448089244       65.7381502185      111.9703924268
C               138.3949572874       67.0023320812      112.5504069660
C               138.0279862652       68.0680533854      111.5111099736
N               139.1735889155       68.8233554171      111.0510558643
C               139.7518195106       68.7972107279      109.8524777802
N               139.2532564778       68.1177875387      108.8203914518
N               140.8401106483       69.5431744219      109.6784241524
H               140.2049249842       63.4441378056      111.7074331059
H               139.2708340005       64.8551294652      113.9430062132
H               140.1075374755       65.8973408525      111.7830982663
H               138.5649873742       65.4527782474      111.0326737239
H               137.4747985897       66.7138348848      113.0599998672
H               139.0565803658       67.4412042294      113.2984704128
H               137.5179715220       67.5944144674      110.6731328209
H               137.3302419295       68.7709084729      111.9724054668
H               139.6301168134       69.4084306521      111.7450470106
H               138.4678231414       67.5074388362      108.9762437012
H               139.8983920784       67.8058712146      108.0848728396
H               141.1621478103       70.1170573055      110.4503824544
H               141.2554211592       69.6347401278      108.7630683216
N               136.8094155439       63.7141331105      112.0699341050
C               135.4207404791       63.3052541650      112.0587391090
C               134.9874598528       62.6949104162      113.3866718741
O               133.9352331306       63.0103733893      113.9322352509
C               135.2366013877       62.2503308962      110.9389938172
O               136.2271006770       61.2565057520      110.9747648684
H               137.3513331207       63.4517152700      111.2492922072
H               134.7693747483       64.1670688918      111.8627820784
H               134.2288047780       61.8288272567      111.0025758919
H               135.3613766281       62.7565113284      109.9765385986
H               135.9887540083       60.5274673404      111.5799430652
N               135.8010257496       61.7482736556      113.8455204771
C               135.4609408323       60.9067680930      114.9648195806
C               135.4609686808       61.7164155948      116.2519434887
O               134.5930304941       61.5647591162      117.1070777113
C               136.4578895476       59.7626513640      115.0621675073
C               136.4880547187       58.8857034938      113.7543055879
O               135.7256645831       59.2260265688      112.8281148806
O               137.2790929475       57.9326080969      113.7720540826
H               136.6497176158       61.5187437760      113.3526148563
H               134.4500783852       60.5017909568      114.8143693439
H               137.4673466520       60.1493923167      115.2181384498
H               136.2168401447       59.1043944869      115.8989973030
N               136.4651647020       62.5801963887      116.3676576816
C               136.6100604870       63.4512363979      117.5154938740
C               135.3949659048       64.3777572432      117.6215760302
O               134.8158565014       64.5606322179      118.6881720436
C               137.9058524380       64.2438252939      117.3989725581
C               139.1597381291       63.3618696022      117.4604489333
C               140.3858123146       64.2007642546      117.1122739945
C               139.3415746107       62.7157709584      118.8306780276
H               137.1382172156       62.6587410136      115.6168521705
H               136.6071345296       62.8387319616      118.4267835498
H               137.8785871728       64.7748155235      116.4451451440
H               137.9312046433       64.9957370268      118.1897218182
H               139.0631483223       62.5629944568      116.7152609375
H               141.2817463828       63.5885535909      117.1528102928
H               140.2899135032       64.6135521675      116.1119097520
H               140.4912033555       65.0230902728      117.8164952261
H               140.1993889345       62.0480272165      118.8230602951
H               139.4887388463       63.4770090111      119.5934109137
H               138.4765510575       62.1176004233      119.1062847060
N               134.9867999663       64.9125726746      116.4741525537
C               133.8066410193       65.7568603162      116.4285682079
C               132.6094083945       64.9558769650      116.9508551594
O               131.8737701327       65.3642510616      117.8416550105
C               133.5646963888       66.2375949056      115.0060005221
H               135.5282033738       64.7825367098      115.6285478253
H               133.9520491937       66.6062984606      117.1102936180
H               132.6572091135       66.8321182724      114.9697813391
H               134.4051527193       66.8478457391      114.6879926380
H               133.4704599594       65.3828773257      114.3402125807
H               138.4756381112       68.1407982346      120.7027004246
H               151.4227186729       72.5369110939      101.2887952189
H               154.5139992798       70.5701297377      111.6708492814
H               155.3427626854       67.5388814550      112.8801124897
H               154.9158521118       70.0722830386      116.8067301423
H               152.9426243590       67.2082059397      116.7941217795
H               152.4961654693       69.1668242886      121.4578323839
H               149.7643699268       68.1621214862      123.7295020167
H               147.9199924690       63.5290470124      120.0507587022
H               150.6753821706       61.4681733409      119.3541058548
H               149.2625082650       60.2416394329      114.7788274408
H               151.9359133580       62.0746288680      112.6885335247
H               146.7234402078       63.8487397010      104.4702272083
H               143.3631687102       62.9422916821      104.1376473092
H               144.4184718152       61.5735471754      108.6064753308
H               139.4089900387       62.2137026990      108.5316076608
H               139.9340641057       60.3022934337      110.5712511944
H               132.4005230887       64.0583731210      116.5624561646
