 499 
 
N                94.9103020249       58.7308826525      192.4159052909
C                95.2083338997       59.9621399161      191.7149290318
C                96.2442955688       59.6842453034      190.6205276988
O                96.1471325359       60.1630863768      189.4973636319
C                95.7252524082       61.0541383725      192.6487912978
C                95.7530743123       62.3528049591      191.8446195138
O                94.7294663052       62.8825143990      191.4481912224
N                96.9706308957       62.8585524650      191.6068926733
H                95.1438370187       58.6468428477      193.3970660637
H                94.2998733278       60.3183898405      191.2100068360
H                95.0205173800       61.1746874885      193.4727013893
H                96.7081144013       60.7908520496      193.0374959001
H                97.0451176832       63.6806967098      191.0276491656
H                97.8162705216       62.3875819741      191.8792293433
N                97.2534076223       58.9001989702      191.0041777017
C                98.3086466453       58.5449384759      190.0836925081
C                97.7167702652       57.9111816561      188.8244609370
O                98.0549164892       58.2993012273      187.7153486000
C                99.3266975688       57.6068417432      190.7373884503
O               100.4433144603       57.5336502629      189.8894301943
H                97.3861497067       58.6545672206      191.9858856302
H                98.8463104086       59.4433092243      189.7479115494
H                99.6007589441       58.0267694256      191.7152559746
H                98.8690851024       56.6185430333      190.8771753585
H               101.1287894255       56.9893694834      190.3033115646
N                96.8203611494       56.9442993492      189.0133491042
C                96.1778469258       56.2906540014      187.8823546531
C                95.7147434816       57.3571862149      186.8915364887
O                96.0277587588       57.3321443909      185.7068520513
C                95.0451535913       55.4081680595      188.4137981377
C                94.2351937605       54.6322852225      187.3632005606
C                93.2216279946       55.5158655600      186.6383567043
C                95.1303353493       53.9147748122      186.3548722867
H                96.6389021107       56.5659887927      189.9380136507
H                96.9210441537       55.6817465462      187.3512182451
H                95.5110174391       54.6908726623      189.0936848049
H                94.3660860034       56.0335068443      188.9965910941
H                93.6697497739       53.8751030955      187.9177808620
H                92.5607772974       54.9014669205      186.0315436010
H                92.6176035526       56.0732169420      187.3502453479
H                93.7200934001       56.2194024874      185.9773203048
H                94.5337722693       53.2534617739      185.7317479628
H                95.6215731503       54.6332049350      185.7025561887
H                95.8865621399       53.3194996722      186.8604489308
N                94.9423620127       58.3230634311      187.4056229481
C                94.4930651667       59.4111539848      186.5630759058
C                95.6843160837       60.0782384662      185.8659126066
O                95.7154244156       60.2651246664      184.6509826453
C                93.7176620459       60.4399945033      187.3888108083
O                93.3565590979       61.5029382689      186.5382575406
H                94.7084317387       58.3284837683      188.3894764600
H                93.8454967627       59.0257578468      185.7633461144
H                92.8284985036       59.9513043757      187.8074526961
H                94.3532618807       60.7937172607      188.2097166438
H                92.8055589857       62.1231602285      187.0296717238
N                96.6801978878       60.4450223846      186.6652851820
C                97.8412625015       61.1082488555      186.1179625511
C                98.5683198879       60.2633724989      185.0745328358
O                99.2752002154       60.8171626755      184.2287642297
C                98.8305044353       61.5219438242      187.2054866086
C                98.2997565285       62.6002582806      188.1610279194
C                99.4322633354       63.0136363010      189.1007728607
C                97.7806751191       63.8166333979      187.3952794645
H                96.6278592917       60.3039337125      187.6686175166
H                97.5004347799       62.0009504072      185.5777037589
H                99.1133389072       60.6265863767      187.7610337531
H                99.7196204837       61.9062632196      186.7011745617
H                97.4774210145       62.1830059577      188.7510185944
H                99.0980991480       63.7930317946      189.7794030578
H                99.7868100628       62.1650828791      189.6801812029
H               100.2653735257       63.4054997575      188.5235108410
H                97.6644645893       64.6737663040      188.0530777360
H                98.4822309313       64.0986411523      186.6129879432
H                96.8115807335       63.6126390171      186.9460257898
N                98.4182090893       58.9470376199      185.1105732669
C                99.0465800308       58.1174210817      184.1112170787
C                98.3890841730       58.3268177740      182.7498501384
O                99.0510760493       58.2648299782      181.7168499665
C                99.0178392264       56.6428604815      184.5071343911
C                99.8641443329       56.3287818747      185.7492993541
C                99.7293034107       54.8433669467      186.0787790289
C               101.3351818316       56.6888119680      185.5485533353
H                97.9037455521       58.5012515090      185.8599728533
H               100.0843580631       58.4511908773      183.9852332517
H                97.9775836392       56.3710721306      184.6944120947
H                99.3819396507       56.0581524194      183.6601749867
H                99.4786383645       56.9146738595      186.5879693468
H               100.2438849813       54.6146445885      187.0077561030
H                98.6829909228       54.5666601135      186.1837348045
H               100.1621083461       54.2406008114      185.2840013398
H               101.9255837606       56.3035246320      186.3749132062
H               101.7112144424       56.2583837652      184.6228359387
H               101.4677246262       57.7672701125      185.5214810202
N                97.0753293807       58.5745521179      182.7471532439
C                96.4394510075       58.9561078173      181.5044608207
C                96.9643454424       60.3286085468      181.0668950784
O                97.3008681272       60.5349582772      179.9041521579
C                94.9017115205       58.8359311448      181.5398850555
O                94.5354879744       58.3471571368      180.2647431564
C                94.1789841561       60.1344317108      181.8788598398
H                96.5694872568       58.7020368841      183.6164033921
H                96.7674083935       58.2517728471      180.7274426228
H                94.6583766024       58.0771397309      182.3025965891
H                93.5792675454       58.4289510328      180.1646722347
H                93.1034443418       59.9697108677      181.8777432688
H                94.4689755421       60.4724580211      182.8676526173
H                94.4149327644       60.9036841709      181.1473654676
N                97.1130466912       61.2432318608      182.0274716637
C                97.7673358865       62.5037995535      181.7195562275
C                99.1169799320       62.2349120091      181.0522842260
O                99.5125234246       62.9326670698      180.1244235672
C                97.9945213985       63.3572961792      182.9665523653
C                96.7106515391       64.0565928931      183.4373520528
C                96.4787503705       65.2847934813      182.5674902258
O                96.1578199892       65.2073033096      181.3927281884
N                96.7094399798       66.4535238539      183.1870845372
H                96.7661507929       61.0679025713      182.9638895069
H                97.1630910970       63.0734407970      180.9997931551
H                98.4076577176       62.7199021529      183.7478029805
H                98.7447105103       64.1125760559      182.7217329600
H                95.8605500694       63.3802971480      183.3404822889
H                96.8100774287       64.3544348554      184.4797963240
H                96.9594913836       66.4873885201      184.1599261820
H                96.6572981356       67.3331746399      182.6916528786
N                99.8261329827       61.2156918386      181.5453892991
C               101.1485894804       60.9442817737      181.0240211774
C               101.1246979871       60.3170875797      179.6268510600
O               102.1055962137       60.4037710497      178.9006609789
C               101.9761641583       60.0967188013      181.9842438153
C               102.5980022867       60.9624078412      183.0770918790
O               102.7491500476       62.1691430596      182.9543144846
N               103.0126069415       60.2914179424      184.1557428821
H                99.5800031831       60.8359884230      182.4581733589
H               101.6610882609       61.9096640198      180.9010954548
H               101.3563005479       59.3026870516      182.3989462164
H               102.7946975150       59.6409780203      181.4216028141
H               103.4616019116       60.7946643528      184.9040421835
H               102.9138806674       59.2929156043      184.2288567442
N               100.0105975873       59.6719305045      179.2730133590
C                99.8046382933       59.2578225958      177.8983876657
C                99.7141726540       60.5136411628      177.0186658417
O               100.3740504906       60.6278385115      175.9901271173
C                98.5585876034       58.3828687134      177.7493702400
C                98.8605716778       56.9192021636      178.0602915379
O                98.8330432796       56.0613900812      177.1904887855
N                99.1844908274       56.6448093818      179.3293472142
H                99.2165972953       59.6448636788      179.8989017720
H               100.6925080165       58.7085183467      177.5601806510
H                97.7632328660       58.7608035310      178.3932738516
H                98.2157817630       58.4211283655      176.7147744961
H                99.3959531925       55.6876150698      179.5604074389
H                99.1793122988       57.3323426873      180.0723474993
N                98.9369321086       61.4908222973      177.4821327885
C                98.9179858214       62.7739003556      176.8039190283
C               100.3366905129       63.3453609476      176.7531524024
O               100.7691057120       63.8881900888      175.7398670270
C                97.9626467407       63.7607233456      177.4740905088
C                96.4949993593       63.6304536865      177.0395836198
C                96.2948681896       64.1105271222      175.6025329449
C                95.9534108803       62.2121687158      177.2031907534
H                98.3593523033       61.3626978461      178.3039314240
H                98.6260032920       62.6200413686      175.7571362634
H                98.0454872817       63.6378154715      178.5540326812
H                98.2979848791       64.7714919964      177.2374571687
H                95.9253290614       64.2934394933      177.6996003425
H                95.2361325622       64.1301165788      175.3572302860
H                96.6938740279       65.1137137958      175.4694477615
H                96.7892723707       63.4489741447      174.8949466533
H                94.8852183746       62.2013795980      177.0015503638
H                96.4318808273       61.5285352760      176.5062906072
H                96.1121359451       61.8463114310      178.2139926039
N               101.0979071333       63.1692322380      177.8385410522
C               102.4476640378       63.7000843956      177.8262235784
C               103.3361385018       62.9535735678      176.8345366211
O               104.3500980691       63.4930570300      176.3937670146
C               103.0842107450       63.7191752535      179.2125536309
C               102.4839647179       64.8501691551      180.0452715285
O               102.1059137173       65.8872153914      179.5190702401
N               102.4375998292       64.6438269578      181.3636864607
H               100.6487062879       62.9655999211      178.7288544517
H               102.4074540721       64.7407096130      177.4688535933
H               102.9905583078       62.7464606693      179.6895784170
H               104.1471401259       63.9449915310      179.0921917722
H               102.1077476476       65.3957581634      181.9484595056
H               102.7409653255       63.7916220145      181.8185556087
N               102.9768149315       61.7241730414      176.4846048029
C               103.6867344200       61.0108170545      175.4442532185
C               103.3105497346       61.5679645027      174.0633629485
O               104.1517380894       61.6511784509      173.1752556055
C               103.4655927986       59.4997717153      175.5703738867
C               104.5545101153       58.6761271584      174.8596487404
C               105.5209035862       57.9887713402      175.8318428820
C               106.4619163649       58.9197384529      176.5952412328
N               107.6464797779       59.3042554558      175.7748866866
H               102.1794278736       61.2731375693      176.9119371476
H               104.7495660933       61.2486824143      175.5687323583
H               103.4495194532       59.2646220389      176.6357792557
H               102.4782813615       59.2664380830      175.1721921423
H               104.0710435219       57.8936450045      174.2760468965
H               105.0848335750       59.3110060665      174.1505110137
H               104.9238617281       57.4386265937      176.5590261360
H               106.1079711024       57.2528345558      175.2819720038
H               105.9354726231       59.8181087666      176.9155290602
H               106.8319006482       58.4004435975      177.4803433843
H               108.2948616872       59.8935060528      176.3158896170
H               108.1484775405       58.4556407436      175.4706336542
H               107.3943700299       59.8426397236      174.9306355238
N               101.4892034826       73.2166803124      171.9367184515
C               101.9812845974       74.1889340105      172.8973599914
C               100.8220716773       74.6042528051      173.8131713336
O               100.9028919983       74.5745293100      175.0366369031
C               102.5879300497       75.3746967480      172.1476118452
C               103.4760109966       76.2361792981      173.0480799458
C               104.0712018911       77.3719329677      172.2299658590
O               103.6404557324       78.5142996321      172.2624637058
N               105.0822845189       77.0043730239      171.4277571048
H               101.5711769126       73.4523089624      170.9527429030
H               102.7348774955       73.7099068732      173.5369691939
H               103.1748965205       74.9769599225      171.3182752986
H               101.7839733772       75.9844618188      171.7323474245
H               102.8857677479       76.6584661766      173.8618302978
H               104.2750510621       75.6290299419      173.4740960291
H               105.4595852702       76.0728974695      171.4460028911
H               105.5379954968       77.7023858320      170.8610158363
N                99.7178948019       74.9821794208      173.1678978315
C                98.4825193116       75.2227361841      173.8901089520
C                98.1815395248       73.9888752761      174.7478865795
O                97.9568936225       74.0722615092      175.9510911567
C                97.3509774826       75.5073202056      172.9139581717
H                99.6778842862       74.9762398255      172.1534471239
H                98.6253403205       76.0639928204      174.5809704843
H                96.4217015026       75.6562463404      173.4560935135
H                97.5781880649       76.4033279745      172.3432916102
H                97.2335873604       74.6715299269      172.2287829457
N                98.2080017286       72.8430138267      174.0722411721
C                97.9572851301       71.5626735382      174.6900849468
C                98.5935957030       71.4730389139      176.0699806706
O                97.9186484449       71.2265415341      177.0619817861
H                98.2889280653       72.8405905280      173.0567162491
H                96.8810060130       71.3886391030      174.8059748259
H                98.3850222160       70.7855165497      174.0540659424
N                99.9199592631       71.6189828137      176.1048258252
C               100.6389961537       71.4012361988      177.3403957931
C               100.1975802314       72.3903988816      178.4150710114
O                99.9510544438       72.0215887822      179.5552773448
C               102.1633024737       71.3825931283      177.1206920874
O               102.7309373736       70.7716949667      178.2560980363
C               102.7877779581       72.7514619246      176.8719784793
H               100.4358272363       71.7660183869      175.2429332776
H               100.3693113812       70.4107117591      177.7383754449
H               102.3333441442       70.7493540093      176.2326327836
H               103.6530737604       70.5440986442      178.0138690750
H               103.8268312440       72.6120462570      176.5827815372
H               102.2642694904       73.2807742964      176.0830350031
H               102.7566259287       73.3428506102      177.7831601372
N               100.0881744885       73.6655248564      178.0291796187
C                99.6220340807       74.6651344449      178.9675884942
C                98.3337191093       74.1835562154      179.6541102141
O                98.1927787627       74.1958395399      180.8720921721
C                99.3839649979       75.9893298448      178.2392679467
O                99.0729502185       76.9675750129      179.2012299814
H               100.2597046425       73.9468512354      177.0716285732
H               100.3654959130       74.8221901956      179.7606990494
H               100.3001758407       76.2557084020      177.6929001701
H                98.5637860709       75.8629455710      177.5216497972
H                98.8917298847       77.8001001859      178.7481110391
N                97.3999418524       73.7603139053      178.8055735690
C                96.0929347862       73.3329105361      179.2594417101
C                96.2240299322       72.0968189900      180.1416406590
O                95.6278981677       72.0047778524      181.2143684470
C                95.1606244509       73.0746659569      178.0665174709
C                93.8202944426       72.5369095134      178.5609028545
C                94.9443607043       74.3734324920      177.2926321532
H                97.5839278223       73.7494523678      177.8098700273
H                95.6592561119       74.1307864405      179.8786748364
H                95.6391290697       72.3304252724      177.4211611218
H                93.1497034084       72.3715500048      177.7224584189
H                93.9443521861       71.5981810158      179.0947660834
H                93.3636920694       73.2585003651      179.2348422141
H                94.2058608758       74.2204296949      176.5104353602
H                94.5847312247       75.1463982621      177.9681531024
H                95.8679209948       74.7139315201      176.8342746946
N                97.0025128071       71.1175273098      179.6868456391
C                97.1553652369       69.9013573492      180.4541644011
C                97.6563347267       70.1915421515      181.8685643957
O                97.3234824806       69.4659347862      182.8068790290
C                98.1266156939       68.9365875900      179.7751814777
C                97.5948047873       68.3370353101      178.4678757045
C                98.7300557118       67.5893022299      177.7715370242
C                96.4113657784       67.4032361954      178.7102577192
H                97.4861675802       71.2011400163      178.7998631414
H                96.1699116791       69.4294943585      180.5727633914
H                99.0515310366       69.4845730207      179.5823617280
H                98.3484957526       68.1245412389      180.4705982030
H                97.2702009995       69.1536591263      177.8166451358
H                98.3806537731       67.1562637272      176.8372743004
H                99.5478160595       68.2688366279      177.5425443484
H                99.1112844912       66.7975210046      178.4121748909
H                96.1085172301       66.9375008767      177.7759927941
H                96.6669049647       66.6203405764      179.4209132118
H                95.5547412438       67.9469394155      179.1005385317
N                98.5127364489       71.2002088551      181.9778369996
C                99.1048467645       71.6091206980      183.2352163616
C                98.0485711163       72.2564369139      184.1362847386
O                97.8907740215       71.8820727851      185.2968752315
C               100.2538285057       72.5721229469      182.9703693960
H                98.8154724143       71.6953144270      181.1462192938
H                99.4594843446       70.7135913555      183.7614148172
H               100.7099105612       72.8796615098      183.9065467472
H               100.9979123704       72.0860285328      182.3451152785
H                99.8825003497       73.4498545938      182.4468688022
N                97.3338333266       73.2341292343      183.5843141369
C                96.3028248302       73.9005307989      184.3595433515
C                95.2710806868       72.8647036676      184.8267297486
O                94.7548423610       72.9110515183      185.9354126913
C                95.6784531652       75.0691801350      183.5885783466
C                94.5097304187       74.6657445886      182.6830290323
C                94.1069427861       75.8288263514      181.7945375417
O                94.4010084315       75.8869983503      180.6095655446
N                93.4009533574       76.7902968302      182.4083055271
H                97.5060385113       73.5322583371      182.6289325926
H                96.7553002039       74.3016406115      185.2766109439
H                95.3441180526       75.8059047864      184.3197143979
H                96.4644798902       75.5249117154      182.9820975070
H                94.8067519022       73.8374657447      182.0402461716
H                93.6578977213       74.3565760764      183.2901255676
H                93.1789354267       76.7348050579      183.3871650503
H                93.1255887530       77.6083530407      181.8901586410
N                95.0063384782       71.9017478073      183.9396932176
C                94.0940062662       70.8199045401      184.2499219266
C                94.6502019611       70.0577069699      185.4510736241
O                94.0019581310       69.9552344806      186.4862822042
C                93.9047768459       69.9213757159      183.0383013717
H                95.3886088047       71.9301638236      183.0010400448
H                93.1333644215       71.2426557639      184.5750438863
H                93.2054672187       69.1240782427      183.2702918851
H                93.5179566402       70.5097063676      182.2108955563
H                94.8556862523       69.4887073694      182.7407086227
N                95.8638626899       69.5318812926      185.3004835708
C                96.5289242386       68.7925953597      186.3587197295
C                96.3077659609       69.4600227721      187.7229490940
O                95.9346038584       68.8362454520      188.7076552148
C                98.0260616325       68.7168599414      186.0558408073
C                98.7464855221       67.7269389879      186.9617704863
O                98.1814748837       67.0230182123      187.7773743475
N               100.0700136773       67.6579779723      186.7403344641
H                96.3720693527       69.6455372835      184.4266493517
H                96.1071988886       67.7803991730      186.4331636393
H                98.1622429311       68.4194075256      185.0126598037
H                98.4674709742       69.7077440213      186.1794049246
H               100.6319413737       67.0524595227      187.3169409600
H               100.5281308372       68.2880162686      186.1058909423
N                96.5893141846       70.7623308918      187.7400510722
C                96.5374009627       71.5301380075      188.9638803813
C                95.2555980725       71.2478017871      189.7416324127
O                95.2624577637       71.1939924227      190.9739059946
C                96.6264653893       73.0255078985      188.6509220979
C                98.0326853876       73.4166132229      188.2006472812
C                98.0895846756       74.8261338865      187.6407571839
O                97.1122834391       75.4351239917      187.2329974080
N                99.3282386674       75.3465250970      187.5759664433
H                96.8790486164       71.2373145549      186.8939742542
H                97.3792225228       71.2261301403      189.6038918626
H                95.9117939263       73.2678954564      187.8613436786
H                96.3527708596       73.5986955793      189.5379956830
H                98.7379943728       73.3100816889      189.0243579744
H                98.3500506824       72.7555179731      187.3899317923
H               100.1339876054       74.8402843176      187.8996103403
H                99.4508962357       76.2659766855      187.1840641399
N                94.1421593046       71.1406113948      189.0258038303
C                92.8412491327       70.9953394041      189.6482021106
C                92.7875153712       69.7240428409      190.5026005511
O                92.7227923284       69.8476431170      191.7332618639
C                91.7227590573       71.1358769263      188.6085657241
C                90.3687473057       70.8433312645      189.2513000729
C                91.7433183334       72.5466563100      188.0209690732
H                94.1839950837       71.0812724624      188.0144372256
H                92.7413883125       71.8063927989      190.3866857305
H                91.9078672292       70.4283222092      187.7985938955
H                89.5764028914       70.9557376007      188.5169878925
H                90.3324529260       69.8321112106      189.6482531102
H                90.1813536361       71.5358634312      190.0688242205
H                90.9318648428       72.6584709184      187.3070915847
H                91.6173920840       73.2903866286      188.8045437325
H                92.6803236324       72.7433114562      187.5049969988
N                92.8189575021       68.5128240141      189.9571056401
C                92.7676101691       67.3565832778      190.8440880286
C                93.8319060613       67.4320504160      191.9300356441
O                93.5723818443       67.1009380402      193.0838387706
C                92.9448128963       66.1317556983      189.9345537465
C                93.5312506278       66.7159974339      188.6515071236
C                92.8707355973       68.0881647289      188.5724757535
H                91.8029016768       67.3356770388      191.3638680677
H                93.5803249047       65.3768378502      190.3940458184
H                91.9704704687       65.6866292141      189.7366165834
H                94.6104536717       66.8397472081      188.7339296568
H                93.3089632249       66.1095557048      187.7776836522
H                93.4390463855       68.7830792108      187.9651827557
H                91.8502711769       68.0029795985      188.1841224178
N                95.0554515261       67.8056280212      191.5456693510
C                96.1246191634       67.8785586911      192.5217664601
C                95.6382869713       68.5393017880      193.8192925679
O                95.9209645182       68.0834372542      194.9173265570
C                97.3227959877       68.6592550943      191.9818758980
C                98.0915430490       67.8807246861      190.9105219271
C                99.2618257033       68.7055792693      190.4089942282
O                99.1202939666       69.7526436600      189.7948455056
N               100.4784936340       68.2024780642      190.6771706676
H                95.2391069333       68.1482153524      190.6092608184
H                96.4271831366       66.8584610226      192.7979998429
H                96.9696189982       69.6040865801      191.5666401619
H                97.9853771753       68.8837527707      192.8206562249
H                98.4383015951       66.9321450828      191.3159107088
H                97.4442410347       67.6929980016      190.0522163588
H               100.5999524001       67.3835927528      191.2477510936
H               101.2922410991       68.7368936939      190.4166664939
N                94.9728911145       69.6891884440      193.6401316529
C                94.4403964302       70.4349067251      194.7551134557
C                93.1998807628       69.7686220370      195.3654463435
O                93.0910780107       69.6563016922      196.5857629979
C                94.1146343695       71.8736196855      194.3364618814
C                95.3904976861       72.7070551063      194.3623199662
O                95.7372798121       73.3245934647      195.3596785527
N                96.1064184196       72.6906930664      193.2343474572
H                94.7150585307       69.9928116697      192.7079340803
H                95.1918662855       70.4398460335      195.5572924946
H                93.6684629833       71.8642930006      193.3426394251
H                93.4173658216       72.3046542349      195.0557856280
H                96.9802027076       73.1908002616      193.2163143605
H                95.8237444323       72.1553272839      192.4197026795
N                92.2662857317       69.3558695930      194.5134665236
C                91.0457765746       68.7244667741      194.9846419290
C                91.3598374475       67.6962113085      196.0691203880
O                90.6996210513       67.6224727738      197.1009674889
C                90.2923517289       68.0598268916      193.8201903898
C                89.1567248793       67.1754672149      194.3303488925
C                89.7373461972       69.1207742157      192.8717456612
H                92.4072190111       69.4425917737      193.5105394709
H                90.4066842659       69.4835342215      195.4564562510
H                91.0179692771       67.4279469896      193.2983996256
H                88.6264191193       66.7343950564      193.4907546825
H                89.5324191302       66.3718919852      194.9588009422
H                88.4546197358       67.7612408836      194.9166618303
H                89.2196624232       68.6420291337      192.0445330434
H                89.0271057792       69.7551503586      193.3956845271
H                90.5295535297       69.7456696337      192.4706224343
N                92.3564905158       66.8553238074      195.7939855044
C                92.7135534179       65.7969225511      196.7133199772
C                92.6812599231       66.2634187554      198.1695482708
O                92.2867805289       65.5300443431      199.0659990284
C                94.1264000454       65.2820909223      196.4298905880
C                94.2968465128       64.6022389079      195.0660858781
C                95.7813959854       64.3140980171      194.8526299643
C                93.4786831100       63.3206127630      194.9397517648
H                92.8798733869       66.9345737424      194.9305118461
H                91.9836582579       64.9793675095      196.6387756866
H                94.8091090971       66.1339128294      196.4835540015
H                94.3930925536       64.5793657628      197.2223365347
H                93.9734545712       65.2933445295      194.2844291947
H                95.9383791544       63.8856211182      193.8675214247
H                96.3521265395       65.2360136992      194.9351322273
H                96.1444941367       63.6145485807      195.6018911702
H                93.5826747712       62.9223260128      193.9333769697
H                93.8158268641       62.5768390423      195.6588096300
H                92.4224117124       63.5078065012      195.1116894010
N                93.2310257498       67.4661204022      198.3929509154
C                93.4521541765       67.9944788570      199.7112908051
C                92.3045016586       68.8329403490      200.2838812562
O                92.5052751245       69.5546810834      201.2593631689
C                94.7422658160       68.8412565787      199.7038938857
O                95.1678185069       69.1806982387      200.9919169885
H                93.3760308114       68.1157504645      197.6276046261
H                93.5831702001       67.1475642037      200.4000694836
H                95.5491020025       68.2659925115      199.2381873800
H                94.5594931296       69.7432683439      199.0985292385
H                94.3843574486       69.5269038695      201.4613481529
N                91.1044748158       68.7221371530      199.7077789459
C                89.9779532465       69.4441493902      200.2623184219
C                89.2997853553       68.6904328853      201.4082091722
O                88.5159621410       69.2755141907      202.1476228793
C                88.9787228075       69.9013250530      199.1897804973
C                88.1325912443       68.8176691804      198.5057523762
C                86.9755795608       68.3345468291      199.3768806673
C                87.5641203532       69.3985315088      197.2093763790
H                90.9764542921       68.2015517924      198.8444543026
H                90.4025898719       70.3395057324      200.7406828072
H                88.2988385875       70.6149607951      199.6564995379
H                89.5620025464       70.4203785467      198.4267436279
H                88.7703683500       67.9674486419      198.2548789884
H                86.4006927845       67.5813056940      198.8431856776
H                87.3248224529       67.8905582135      200.3028423111
H                86.3126354357       69.1609573353      199.6235310523
H                86.9465725720       68.6591252128      196.7064071937
H                86.9504485307       70.2708074048      197.4212771688
H                88.3687511836       69.6911572614      196.5400053485
H                94.0245234340       58.5745154397      192.3851549651
H               102.3732992292       61.8663246133      173.8829668995
H               101.9379837369       72.4428602391      172.0357072259
H                89.4958270450       67.7207413670      201.5540378908
