 115 
 
N               142.5011789523       54.4957423984      123.2052252357
C               141.0570582185       54.4101891564      123.2790395947
C               140.6836897439       54.6745022832      124.7407120980
O               140.6276463874       53.7887019017      125.5852973648
C               140.5683068823       53.0224775349      122.8092861945
O               141.0766030266       52.7211146214      121.5348870663
C               139.0448540651       52.9593720860      122.8458848686
H               143.0311628467       54.0045738332      123.9255824232
H               140.6325325604       55.1784615132      122.6239070591
H               140.9889691562       52.2673574648      123.4867568960
H               140.5847153588       53.2471341060      120.8714714210
H               138.7039579554       51.9770953011      122.5321833867
H               138.6640734362       53.1523577472      123.8459601138
H               138.6298322877       53.6982556608      122.1600863987
N               140.5589288947       55.9718986668      125.0290535256
C               140.2539062347       56.4369332624      126.3695636900
C               138.8002568328       56.0655038409      126.6826064495
O               137.8843732198       56.5275080168      126.0094345484
C               140.3898906421       57.9584640669      126.4530245031
C               141.8259247430       58.4874495145      126.5187633395
C               142.6627976091       58.0428867811      125.3221177237
C               141.7871784708       60.0137252368      126.5879649567
H               140.4063296579       56.6267153087      124.2693914775
H               140.9267279494       55.9218642919      127.0622798253
H               139.8791913094       58.3758112419      125.5822776083
H               139.8490805348       58.2868536017      127.3424609003
H               142.2908072996       58.1010040096      127.4307044625
H               143.6340281914       58.5297066887      125.3527077485
H               142.8098896468       56.9658356584      125.3254754915
H               142.1717828961       58.3106988948      124.3878858193
H               142.7939232575       60.4104762257      126.6811104990
H               141.3403426931       60.4107059831      125.6787882267
H               141.2003892521       60.3440403420      127.4403798267
N               138.6084918751       55.2819739872      127.7472881968
C               137.3037888399       54.7816513882      128.1389509512
C               136.7714439761       55.7129681772      129.2296243941
O               137.0628423196       55.5616806668      130.4135401576
C               137.4698586107       53.3446039230      128.6684101937
O               138.4457627595       53.3180703092      129.6807946684
C               137.8808446173       52.3936031604      127.5512758762
H               139.3845842955       54.8347716114      128.2189650930
H               136.6309414098       54.7902816051      127.2770885043
H               136.4945965573       53.0260526917      129.0735467423
H               138.1732280413       53.9797700404      130.3427611704
H               138.0139869030       51.3959583196      127.9573790599
H               137.1096969214       52.3696607467      126.7844399224
H               138.8163150897       52.7155175568      127.0980418800
N               136.0501693632       56.7508168899      128.8026675290
C               135.6298509062       57.8016460364      129.7135576195
C               134.2656860892       57.4430752407      130.3113438414
O               133.2154907361       57.5557091816      129.6920348017
C               135.5374787067       59.1667639050      129.0161426618
C               136.8383955581       59.5371953361      128.2943285663
C               135.1233674746       60.2276163225      130.0369238937
C               138.0432837457       59.7436769121      129.2050102489
H               135.7251958448       56.8165486215      127.8448572580
H               136.3715186807       57.8275605550      130.5194445918
H               134.7559582962       59.0746786724      128.2556152180
H               137.0636600883       58.7594714464      127.5602697747
H               136.6587570514       60.4607951567      127.7416405100
H               135.1276745022       61.2118622893      129.5752766516
H               134.1251347910       60.0224450008      130.4156617807
H               135.8107290152       60.2361426030      130.8788227776
H               138.9034939515       60.0287111483      128.6043614500
H               137.8572356800       60.5387701174      129.9207970564
H               138.2923550838       58.8305358502      129.7410958911
N               134.3011602257       57.0203164879      131.5793203032
C               133.0879901425       56.6942875776      132.3092638292
C               132.2109885436       57.9596954011      132.3797030725
O               132.6428003254       58.9963447583      132.8634027994
C               133.4519316117       56.2299137673      133.7174323511
C               132.2220753955       55.7757655042      134.4948946747
C               131.5997374403       54.5015423785      133.9411147501
O               132.1944396537       53.7083201590      133.2210999035
N               130.3469418159       54.3103727885      134.3644370316
H               135.1874457832       56.8414043206      132.0269253900
H               132.5430383748       55.9000768020      131.7855177596
H               134.1467010495       55.3914838645      133.6386092036
H               133.9296229338       57.0575963927      134.2431521794
H               132.5066601667       55.5544563975      135.5258870601
H               131.4603529523       56.5559598897      134.5205299501
H               129.8861102417       55.0171087980      134.9216851391
H               129.8365822981       53.4724860763      134.1160301784
N               130.4177893854       54.2351264909      129.2036267062
C               131.4861748999       55.1112998901      128.7983437523
C               131.1610175833       55.7302203097      127.4339204365
O               130.3756611508       55.2097729286      126.6585983578
C               132.8383858732       54.3551299588      128.6413346324
O               132.8353030915       53.6329974751      127.4281782716
C               133.0752951305       53.4016988300      129.8155723790
H               130.2329656907       53.4510198361      128.5866225657
H               131.6108177807       55.8918344696      129.5522134883
H               133.6279430279       55.1193861815      128.6198778152
H               133.6573549442       53.8162149281      126.9219473252
H               134.1050777037       53.0544120877      129.8007250074
H               132.8748968604       53.8763762062      130.7720323307
H               132.4200781342       52.5407082238      129.7067893675
N               133.9756405637       56.6992104963      124.4729915559
C               135.3723360933       56.4546126630      124.2135866979
C               135.8851661296       57.4480569208      123.1779892155
O               135.1935179034       57.8381813911      122.2468882517
C               135.6260682367       55.0247538093      123.7577692658
C               135.3884669551       53.9889567460      124.9026163163
O               134.9888702114       54.4344955747      126.0027668417
O               135.6219601679       52.8013556000      124.6361034892
H               133.3165742408       56.3885501030      123.7783369395
H               135.8970327425       56.6119653115      125.1594304981
H               134.9877808135       54.7549373793      122.9122840534
H               136.6612825114       54.9135286127      123.4239341933
H               142.7827769322       54.1533026226      122.4220026763
H               131.2754422811       57.9399179290      132.0270530444
H               130.6081012288       53.8820024661      130.0092847139
H               131.5974818694       56.5860387235      127.1562988062
H               133.7344043542       56.2845963058      125.2345033183
H               136.8170354627       57.8044944623      123.2456044885
