 449 
 
N               136.9905490787       65.4024671197      128.2578146544
C               136.9183404955       64.6492143279      127.0276651901
C               136.7103669687       65.5654431587      125.8220384932
O               137.4457876104       65.5179866798      124.8396295970
H               136.4241664835       65.0895135329      129.0405516459
H               137.8410151991       64.0825679273      126.8637259138
H               136.0648187383       63.9748439670      127.1003834655
N               139.7830952903       67.4273759818      125.2193691944
C               140.7757855754       66.5836410955      124.5831414963
C               140.4911007944       66.6071640172      123.0848845790
O               141.3517843276       66.9097655335      122.2603152153
C               140.7395653322       65.1496318791      125.1345890223
C               141.3014558504       65.1373284406      126.5600618459
C               141.5337019127       64.2197043076      124.2177108304
C               141.0679150405       63.8247773560      127.2976318014
H               139.2296202009       67.0396400305      125.9770025236
H               141.7762995856       67.0120436867      124.7347408193
H               139.6923411941       64.8331341221      125.1547089869
H               142.3711535416       65.3409073043      126.5172730407
H               140.8372405866       65.9418587556      127.1326308187
H               141.5255059221       63.2095161050      124.6142936535
H               141.1039744260       64.1983981470      123.2190805404
H               142.5641280305       64.5563994696      124.1361316796
H               141.4277033023       63.9158464482      128.3193339592
H               140.0058321333       63.5924106452      127.3337637271
H               141.5913464361       63.0019437990      126.8209075525
N               139.2538854808       66.2651806617      122.7395520364
C               138.8544722730       66.2857110844      121.3479285194
C               139.2599551037       67.6183789070      120.7143430558
O               139.9767694056       67.6378836883      119.7199393818
C               137.3621059699       66.0505670183      121.1999985151
H               138.5526724118       66.0654799295      123.4453064840
H               139.4208848158       65.5120334006      120.8071821852
H               137.0631411271       66.2036142469      120.1650181288
H               137.1055174411       65.0381972224      121.4986468998
H               136.8191513289       66.7534012848      121.8250339124
N               142.9709585991       68.4059074640      120.3517146540
C               143.5074913550       67.5020665460      119.3583665187
C               143.1038735876       67.9685166322      117.9606089665
O               143.9210410006       68.0034217344      117.0462214463
C               143.0366195524       66.0549161584      119.6327030783
O               143.4204330687       65.6416655335      120.9200904583
C               143.6633762541       65.0916126293      118.6317829663
H               142.3390568678       68.0390650638      121.0524764676
H               144.6050314081       67.5322955774      119.4037153966
H               141.9394615978       66.0446552770      119.5417150996
H               142.8425752282       66.0682024792      121.5705295820
H               143.2868404934       64.0902819007      118.8157393190
H               143.4277311355       65.3909437530      117.6161894728
H               144.7404646857       65.0859150564      118.7701089998
N               149.2279843032       64.3896600134      128.3677981361
C               149.0251693572       63.2641270210      127.4730772759
C               149.2358162603       63.7387188816      126.0320895153
O               148.6071576169       64.6844792284      125.5672928522
C               147.6091290891       62.6993149087      127.6598963920
C               147.3266069509       61.6176942482      126.6187263217
C               147.4465449524       62.1410858142      129.0715797465
H               148.3968951243       64.7859311332      128.7943597586
H               149.7700192392       62.4988223280      127.7215191239
H               146.9051646637       63.5255249689      127.5218300359
H               146.3245141417       61.2232645758      126.7622136787
H               147.3900735459       62.0169919955      125.6086243067
H               148.0319573712       60.7955072496      126.7163705823
H               146.4306267478       61.7811921626      129.2099163641
H               148.1292510193       61.3104151379      129.2355302965
H               147.6376056889       62.9034398454      129.8233340213
N               148.5926028110       63.5885595109      122.7894001438
C               147.3975152266       63.1744386206      122.0861148390
C               147.6213284207       62.7119598349      120.6428593652
O               146.7922060303       61.9936024093      120.1040642204
C               146.3418623815       64.3012453598      122.1228821829
C               145.8134587191       64.5151357530      123.5404550382
C               146.8903840947       65.6061014440      121.5519877578
H               148.4926946806       64.4117836123      123.3716495433
H               146.9769627184       62.2888574949      122.5869566331
H               145.5067736399       63.9776059807      121.4949422298
H               145.0800477311       65.3157116746      123.5208872461
H               145.3297475167       63.6134536194      123.9068998169
H               146.6081736917       64.7920062951      124.2296858210
H               146.0972571281       66.3479930276      121.5465013141
H               147.7223574246       65.9876787502      122.1398428412
H               147.2303604522       65.4643434795      120.5298942700
N               150.6083971774       58.6060798886      120.1879039956
C               150.2786682623       57.2014395520      120.1508642330
C               148.7724772700       57.0135112182      119.9960548432
O               147.9629413969       57.8510009749      120.3691380357
C               150.7388682255       56.4652375315      121.4273267421
C               150.0939369541       57.0363774271      122.6936050373
C               150.2966790994       56.0848184227      123.8622331387
O               151.0990806046       56.2980201620      124.7589332331
N               149.5260423577       54.9898459061      123.8222626386
H               149.8978215958       59.2248967757      120.5543389720
H               150.7971852394       56.7621331782      119.2913634124
H               150.4709799695       55.4130553857      121.3228702622
H               151.8241604250       56.5419194553      121.5001178068
H               150.5400788020       57.9989453575      122.9408439703
H               149.0242311124       57.1722693138      122.5289026383
H               148.8437738365       54.8342513222      123.0934972797
H               149.6160870444       54.3001302626      124.5490414456
N               148.4354521451       55.8198138351      119.4969045576
C               147.0614116761       55.3734298998      119.4747971519
C               146.6189782841       55.1050504518      120.9120498445
O               147.3969590838       54.6852834988      121.7599366997
C               146.9121636705       54.1050327407      118.6439425984
C               147.1499443046       54.3606610167      117.1225227561
O               146.5469959968       53.5803652471      116.3494821852
O               147.8976978090       55.2883402237      116.7900726798
H               149.1325851131       55.1923546123      119.1294442242
H               146.4312685572       56.1660766034      119.0616080152
H               147.6257637260       53.3481747774      118.9801346287
H               145.9077327064       53.6983717559      118.7644444783
N               145.3294362438       55.3534541205      121.1615886582
C               144.7075448526       55.0343252075      122.4279250398
C               143.1867010527       55.1432783301      122.2657413604
O               142.6975493922       55.8189616044      121.3681771554
C               145.1891765074       55.9732810962      123.5503006778
C               145.0463276150       55.3382291041      124.9271459088
O               144.4667926879       54.2758900167      125.1185980399
N               145.6142813471       56.0298438457      125.9210346631
H               144.7334888754       55.7669199832      120.4510185436
H               144.9737520960       54.0057199059      122.7020201041
H               146.2445661112       56.1896936445      123.3741019413
H               144.6300638741       56.9102985676      123.5169389518
H               145.5672325295       55.6630224582      126.8594307780
H               146.1070160823       56.8906307086      125.7483873851
N               142.5011789523       54.4957423984      123.2052252357
C               141.0570582185       54.4101891564      123.2790395947
C               140.6836897439       54.6745022832      124.7407120980
O               140.6276463874       53.7887019017      125.5852973648
C               140.5683068823       53.0224775349      122.8092861945
O               141.0766030266       52.7211146214      121.5348870663
C               139.0448540651       52.9593720860      122.8458848686
H               143.0311628467       54.0045738332      123.9255824232
H               140.6325325604       55.1784615132      122.6239070591
H               140.9889691562       52.2673574648      123.4867568960
H               140.5847153588       53.2471341060      120.8714714210
H               138.7039579554       51.9770953011      122.5321833867
H               138.6640734362       53.1523577472      123.8459601138
H               138.6298322877       53.6982556608      122.1600863987
N               140.5589288947       55.9718986668      125.0290535256
C               140.2539062347       56.4369332624      126.3695636900
C               138.8002568328       56.0655038409      126.6826064495
O               137.8843732198       56.5275080168      126.0094345484
C               140.3898906421       57.9584640669      126.4530245031
C               141.8259247430       58.4874495145      126.5187633395
C               142.6627976091       58.0428867811      125.3221177237
C               141.7871784708       60.0137252368      126.5879649567
H               140.4063296579       56.6267153087      124.2693914775
H               140.9267279494       55.9218642919      127.0622798253
H               139.8791913094       58.3758112419      125.5822776083
H               139.8490805348       58.2868536017      127.3424609003
H               142.2908072996       58.1010040096      127.4307044625
H               143.6340281914       58.5297066887      125.3527077485
H               142.8098896468       56.9658356584      125.3254754915
H               142.1717828961       58.3106988948      124.3878858193
H               142.7939232575       60.4104762257      126.6811104990
H               141.3403426931       60.4107059831      125.6787882267
H               141.2003892521       60.3440403420      127.4403798267
N               138.6084918751       55.2819739872      127.7472881968
C               137.3037888399       54.7816513882      128.1389509512
C               136.7714439761       55.7129681772      129.2296243941
O               137.0628423196       55.5616806668      130.4135401576
C               137.4698586107       53.3446039230      128.6684101937
O               138.4457627595       53.3180703092      129.6807946684
C               137.8808446173       52.3936031604      127.5512758762
H               139.3845842955       54.8347716114      128.2189650930
H               136.6309414098       54.7902816051      127.2770885043
H               136.4945965573       53.0260526917      129.0735467423
H               138.1732280413       53.9797700404      130.3427611704
H               138.0139869030       51.3959583196      127.9573790599
H               137.1096969214       52.3696607467      126.7844399224
H               138.8163150897       52.7155175568      127.0980418800
N               136.0501693632       56.7508168899      128.8026675290
C               135.6298509062       57.8016460364      129.7135576195
C               134.2656860892       57.4430752407      130.3113438414
O               133.2154907361       57.5557091816      129.6920348017
C               135.5374787067       59.1667639050      129.0161426618
C               136.8383955581       59.5371953361      128.2943285663
C               135.1233674746       60.2276163225      130.0369238937
C               138.0432837457       59.7436769121      129.2050102489
H               135.7251958448       56.8165486215      127.8448572580
H               136.3715186807       57.8275605550      130.5194445918
H               134.7559582962       59.0746786724      128.2556152180
H               137.0636600883       58.7594714464      127.5602697747
H               136.6587570514       60.4607951567      127.7416405100
H               135.1276745022       61.2118622893      129.5752766516
H               134.1251347910       60.0224450008      130.4156617807
H               135.8107290152       60.2361426030      130.8788227776
H               138.9034939515       60.0287111483      128.6043614500
H               137.8572356800       60.5387701174      129.9207970564
H               138.2923550838       58.8305358502      129.7410958911
N               130.9746914862       57.8060715139      131.8987620091
C               129.9834929496       58.8538343622      131.9141821531
C               128.7473288591       58.5210404979      132.7531072877
O               128.0788090350       59.4195031222      133.2406637738
C               129.5228494543       59.2798914924      130.4997412407
C               130.7019676775       59.8360209770      129.7092189795
C               128.8532561448       58.1425660352      129.7331957225
H               130.7116577504       56.9179688749      131.4901516309
H               130.4600174910       59.7213416824      132.3864873706
H               128.7860400181       60.0751171993      130.6561900151
H               130.3658720341       60.1488345830      128.7254799183
H               131.1409609341       60.6861944832      130.2258828094
H               131.4671880829       59.0723220840      129.5858696452
H               128.4880985378       58.5114073512      128.7784416779
H               129.5563943875       57.3372639356      129.5323398857
H               128.0124836815       57.7348825587      130.2889280534
N               130.4177893854       54.2351264909      129.2036267062
C               131.4861748999       55.1112998901      128.7983437523
C               131.1610175833       55.7302203097      127.4339204365
O               130.3756611508       55.2097729286      126.6585983578
C               132.8383858732       54.3551299588      128.6413346324
O               132.8353030915       53.6329974751      127.4281782716
C               133.0752951305       53.4016988300      129.8155723790
H               130.2329656907       53.4510198361      128.5866225657
H               131.6108177807       55.8918344696      129.5522134883
H               133.6279430279       55.1193861815      128.6198778152
H               133.6573549442       53.8162149281      126.9219473252
H               134.1050777037       53.0544120877      129.8007250074
H               132.8748968604       53.8763762062      130.7720323307
H               132.4200781342       52.5407082238      129.7067893675
N               131.7997228189       56.8860510841      127.1807307190
C               132.0527068909       57.3103240325      125.8193089424
C               133.5643869738       57.2159746691      125.6347386755
O               134.3298090697       57.5836802100      126.5164775043
C               131.4989102658       58.7257354919      125.5667077886
C               129.9687956971       58.6363197190      125.5621663634
C               132.0546155300       59.2974693699      124.2659174756
C               129.2830310352       59.9936851328      125.6138118644
H               132.4909977472       57.2122328707      127.8486475989
H               131.5564821967       56.5907857121      125.1588130076
H               131.8252529327       59.3599890898      126.3953642532
H               129.6552387439       58.0906464110      124.6711251341
H               129.6616426587       58.0421529319      126.4247760023
H               131.6463168742       60.2874951464      124.0839279812
H               133.1384171030       59.3821283075      124.3176766262
H               131.8181102850       58.6461351854      123.4270287034
H               128.2046357694       59.8647006459      125.5798700712
H               129.5380922767       60.5076248902      126.5356703903
H               129.5802237432       60.6189537948      124.7776864005
N               133.9756405637       56.6992104963      124.4729915559
C               135.3723360933       56.4546126630      124.2135866979
C               135.8851661296       57.4480569208      123.1779892155
O               135.1935179034       57.8381813911      122.2468882517
C               135.6260682367       55.0247538093      123.7577692658
C               135.3884669551       53.9889567460      124.9026163163
O               134.9888702114       54.4344955747      126.0027668417
O               135.6219601679       52.8013556000      124.6361034892
H               133.3165742408       56.3885501030      123.7783369395
H               135.8970327425       56.6119653115      125.1594304981
H               134.9877808135       54.7549373793      122.9122840534
H               136.6612825114       54.9135286127      123.4239341933
N               137.1125711786       57.9046916856      123.4514784136
C               137.8214469106       58.8127658175      122.5807138613
C               139.0441819804       58.0992273608      122.0260067006
O               139.8249672196       57.5189481262      122.7778148641
C               138.3018341113       60.0827884206      123.3228957737
C               137.2398683888       60.5560837591      124.3194081592
C               138.6625628397       61.1521105859      122.2945910418
C               137.6719628561       61.7916771880      125.0989845237
H               137.6322201428       57.4609554168      124.2002357414
H               137.1248268549       59.0692512291      121.7769687575
H               139.2051395465       59.8068205763      123.8793645447
H               136.3107951020       60.7483715967      123.7809264492
H               137.0391731102       59.7421922178      125.0192843042
H               139.1244472536       62.0062190655      122.7787063389
H               139.3630228548       60.7561990593      121.5618326126
H               137.7693520661       61.4812985484      121.7687096274
H               136.9504486025       61.9810073466      125.8869557175
H               138.6475568950       61.6250356854      125.5483639181
H               137.7217432743       62.6657717493      124.4568464702
N               139.2763623517       58.2506209678      120.7212904804
C               140.3527131457       57.5461698522      120.0635939055
C               141.3350478831       58.5704373578      119.4871687869
O               140.9733332606       59.5352510529      118.8254997961
C               139.8159268287       56.5831513371      119.0078816461
C               139.0485832570       55.4530291690      119.7683594604
O               137.9793275030       55.7655841059      120.3259564300
O               139.5954665838       54.3311055701      119.7812389832
H               138.5524193839       58.6174146951      120.1236242602
H               140.8657814968       56.9604482020      120.8324170632
H               139.1468098259       57.1008424466      118.3164311475
H               140.6441446302       56.1341631521      118.4607127577
N               142.5968237999       58.3254474820      119.8372576948
C               143.7346605717       59.1392865915      119.4671753291
C               144.6609746969       58.2740986388      118.6127296748
O               144.6030110730       57.0487412864      118.6776455237
C               144.4655297294       59.6263551530      120.7269017713
C               143.5285191694       60.3042224654      121.7366068998
C               144.3104212430       60.6494986451      123.0004772696
C               142.8984877986       61.5670511861      121.1543790541
H               142.8050476854       57.4595940203      120.3222061951
H               143.3562056833       59.9797042128      118.8792800896
H               144.9419836274       58.7599377080      121.1941510291
H               145.2527242416       60.3215490255      120.4318704212
H               142.7285886287       59.5979387153      121.9942255353
H               143.6444299295       61.0563264586      123.7560201348
H               144.8021868791       59.7662298803      123.3998193855
H               145.0668541861       61.3906062091      122.7597507692
H               142.3361495600       62.0934919323      121.9206083602
H               143.6710852972       62.2323363377      120.7764096679
H               142.2153018180       61.3235072130      120.3445255113
N               145.4835413690       58.9319728422      117.7945368727
C               146.3647031960       58.2897574327      116.8458604931
C               147.7145094063       58.9993379545      116.8100066217
O               147.8206214667       60.1989196856      117.0173262248
C               145.7888212698       58.3687032894      115.4173880570
C               144.5288002266       57.5268468402      115.2157720468
C               144.7671137296       56.0683464470      115.6023179212
C               143.8467190581       55.0884078861      114.8858371423
N               144.0553655648       53.7356509021      115.4650207931
H               145.5614321418       59.9384483052      117.8500655296
H               146.5032186962       57.2492768838      117.1395815981
H               145.5733359780       59.4153292582      115.1959872496
H               146.5590428660       58.0249244117      114.7246626653
H               143.7045328266       57.9343876256      115.8049145634
H               144.2486721752       57.5852386273      114.1645447778
H               145.7980663161       55.8069562607      115.3603372630
H               144.6312520879       55.9639690406      116.6805268474
H               142.8020841430       55.3856939817      114.9977229788
H               144.0959905908       55.0618543365      113.8248970488
H               143.7895192052       52.9916620455      114.8125574246
H               145.0896831687       53.6267545925      115.7431613865
H               143.5109821565       53.6320106396      116.3259005135
N               135.8010257496       61.7482736556      113.8455204771
C               135.4609408323       60.9067680930      114.9648195806
C               135.4609686808       61.7164155948      116.2519434887
O               134.5930304941       61.5647591162      117.1070777113
C               136.4578895476       59.7626513640      115.0621675073
C               136.4880547187       58.8857034938      113.7543055879
O               135.7256645831       59.2260265688      112.8281148806
O               137.2790929475       57.9326080969      113.7720540826
H               136.6497176158       61.5187437760      113.3526148563
H               134.4500783852       60.5017909568      114.8143693439
H               137.4673466520       60.1493923167      115.2181384498
H               136.2168401447       59.1043944869      115.8989973030
N               136.4651647020       62.5801963887      116.3676576816
C               136.6100604870       63.4512363979      117.5154938740
C               135.3949659048       64.3777572432      117.6215760302
O               134.8158565014       64.5606322179      118.6881720436
C               137.9058524380       64.2438252939      117.3989725581
C               139.1597381291       63.3618696022      117.4604489333
C               140.3858123146       64.2007642546      117.1122739945
C               139.3415746107       62.7157709584      118.8306780276
H               137.1382172156       62.6587410136      115.6168521705
H               136.6071345296       62.8387319616      118.4267835498
H               137.8785871728       64.7748155235      116.4451451440
H               137.9312046433       64.9957370268      118.1897218182
H               139.0631483223       62.5629944568      116.7152609375
H               141.2817463828       63.5885535909      117.1528102928
H               140.2899135032       64.6135521675      116.1119097520
H               140.4912033555       65.0230902728      117.8164952261
H               140.1993889345       62.0480272165      118.8230602951
H               139.4887388463       63.4770090111      119.5934109137
H               138.4765510575       62.1176004233      119.1062847060
N               132.4775169071       62.4123831655      118.8010085686
C               132.6422897302       62.2186186157      120.2269741373
C               132.0488756522       63.4044649429      120.9846540916
O               131.2386922122       63.2285018169      121.8884996031
C               134.1244170307       62.0263484668      120.5795028767
C               134.3646997524       62.2326123902      122.0707957943
C               134.6025993170       60.6380623151      120.1601948692
H               133.3017778506       62.3207813190      118.2196238819
H               132.0755521524       61.3322056526      120.5454585357
H               134.6893380451       62.7829535594      120.0261878776
H               135.4142326374       62.0598622147      122.2937625979
H               134.1188126754       63.2475313620      122.3689767399
H               133.7686082569       61.5369521002      122.6572976404
H               135.6817375065       60.5617804257      120.2857659560
H               134.1525777958       59.8603475718      120.7735171620
H               134.3839146657       60.4446620981      119.1138542845
N               128.4112646916       63.3602157304      120.9982654372
C               127.9237422890       62.2700914914      121.8145745763
C               127.9716566005       62.6425697147      123.2998363171
O               127.0404323741       62.3453149223      124.0438516628
C               128.7039036531       60.9874737450      121.5223351474
C               127.9206170011       59.7630370174      121.9982737549
C               128.7075982834       58.4639940859      121.8001491368
N               128.9476809676       58.1617304356      120.4001648578
C               128.0681664404       57.6131643876      119.5647471335
N               128.4191159435       57.4073421092      118.2947749632
N               126.8464122444       57.2828692119      119.9628970804
H               129.2715197593       63.2260310188      120.4766659371
H               126.8619994553       62.1150903161      121.5746832722
H               128.8678649247       60.9427304960      120.4443792648
H               129.6794682579       61.0456914801      122.0089239977
H               127.6968961841       59.8715612893      123.0590208574
H               126.9773111867       59.7213037501      121.4534491636
H               129.6815414810       58.5578536557      122.2805987199
H               128.1827019825       57.6290409106      122.2704493277
H               129.8400697028       58.4453808692      120.0247347458
H               129.3567087059       57.5917234837      117.9756542165
H               127.7858472457       56.9541208358      117.6562639414
H               126.5496727561       57.4326755570      120.9129330111
H               126.2134113417       56.8241075885      119.3273767525
N               129.0512379433       63.2979799320      123.7184191618
C               129.0961755363       63.8138507489      125.0714361354
C               127.9415894358       64.7926893502      125.2955425340
O               127.2619283653       64.7443006544      126.3134116218
C               130.4119633576       64.5328825162      125.3843823310
C               131.5563850034       63.6172359494      125.7305320994
C               132.7561759673       63.6975093831      125.0392893994
C               131.4612397584       62.7278130447      126.7949249061
C               133.8354322714       62.9061721709      125.3931516801
C               132.5334750186       61.9271605304      127.1451731634
C               133.7231005289       62.0113082007      126.4419703735
H               129.8202743693       63.4980035929      123.0879723781
H               128.9349813581       62.9814835724      125.7683293115
H               130.6715839594       65.1567307289      124.5283876217
H               130.2313081934       65.1864803112      126.2429367155
H               132.8510555048       64.3867373331      124.2131440347
H               130.5437007585       62.6670000803      127.3610102094
H               134.7645657692       62.9898258205      124.8491283003
H               132.4518297777       61.2374469630      127.9714332439
H               134.5546827908       61.3732545221      126.7049159867
N               124.9331439500       62.7985844753      125.8909395633
C               124.9697980626       62.2161789691      127.2219082657
C               124.5163932329       63.2524791092      128.2535414933
O               123.6037451256       63.0101913480      129.0359763913
C               126.3741312388       61.7230786529      127.5384187846
H               125.7741291166       62.7213320944      125.3204938154
H               124.2503197041       61.3883039660      127.2747707013
H               126.3996152171       61.3073943984      128.5420366647
H               126.6544779960       60.9521552108      126.8277268623
H               127.0786413566       62.5479487428      127.4780252341
H               137.8368317229       65.3972510964      128.5640473751
H               135.9594745946       66.2258631241      125.8195662863
H               140.1861040066       68.1485751144      125.5763786979
H               138.9400621552       68.4786273546      121.1113834944
H               143.6461113190       68.7701626586      120.8223386632
H               142.1617057648       68.2511202407      117.7804562698
H               149.7580284822       64.1389606100      129.0505887171
H               149.8991891179       63.2749467560      125.4448486216
H               148.8664971902       62.9253687849      123.3326863760
H               148.4417302970       62.9979161917      120.1477132015
H               151.3343393015       58.7307268459      120.7050801440
H               134.2051932333       57.0993140771      131.2484504932
H               131.6930154808       58.0789312002      131.4301915977
H               128.4863680251       57.5673156094      132.9024668543
H               130.6081012288       53.8820024661      130.0092847139
H               148.5466643275       58.4812182408      116.6123449174
H               135.1432557965       61.7128695235      113.2322625899
H               135.0549417544       64.8514408700      116.8091676361
H               131.8921749565       61.8080650309      118.4813612739
H               132.3200869954       64.3368378273      120.7456452804
H               127.7951672711       63.5685357798      120.3761507167
H               127.7322398106       65.4853920278      124.6053717328
H               124.2821854884       62.4060756775      125.4090786655
H               124.9663066676       64.1444816831      128.2972371379
