 47 
 
N               164.0460000000       55.8130000000      118.5380000000
C               164.6840000000       54.8970000000      117.5910000000
C               164.2930000000       55.0520000000      116.1480000000
O               165.0600000000       55.6090000000      115.3350000000
C               164.3310000000       53.5020000000      118.1510000000
C               163.0310000000       53.7500000000      118.8040000000
C               163.2550000000       55.0560000000      119.5190000000
H               165.6360000000       55.0770000000      117.5400000000
H               164.2630000000       52.8360000000      117.4490000000
H               164.9980000000       53.1840000000      118.7800000000
H               162.3110000000       53.8130000000      118.1580000000
H               162.7970000000       53.0390000000      119.4200000000
H               162.4200000000       55.5010000000      119.7320000000
H               163.7330000000       54.9350000000      120.3540000000
N               163.1210000000       54.5320000000      115.8000000000
C               162.6230000000       54.5520000000      114.4470000000
C               162.6880000000       55.9500000000      113.8510000000
O               162.1280000000       56.9140000000      114.3930000000
C               161.1930000000       54.0070000000      114.3510000000
C               160.3080000000       54.5220000000      115.4620000000
O               160.3100000000       53.9120000000      116.5450000000
O               159.6090000000       55.5430000000      115.2550000000
H               162.5890000000       54.1530000000      116.3590000000
H               163.2020000000       53.9680000000      113.9330000000
H               160.8110000000       54.2550000000      113.4950000000
H               161.2160000000       53.0380000000      114.3810000000
N               163.4510000000       56.0360000000      112.7720000000
C               163.6340000000       57.2480000000      112.0240000000
C               163.7470000000       56.7890000000      110.5650000000
O               163.9100000000       55.5900000000      110.3010000000
C               164.9130000000       57.9550000000      112.4920000000
C               165.0140000000       59.4640000000      112.2100000000
C               163.9750000000       60.2720000000      113.0080000000
C               166.4150000000       59.9420000000      112.5590000000
H               163.8860000000       55.3670000000      112.4520000000
H               162.9090000000       57.8820000000      112.1410000000
H               165.0010000000       57.8200000000      113.4490000000
H               165.6710000000       57.5180000000      112.0730000000
H               164.8310000000       59.6070000000      111.2680000000
H               164.0710000000       61.2150000000      112.8030000000
H               163.0820000000       59.9790000000      112.7670000000
H               164.1160000000       60.1320000000      113.9570000000
H               166.4860000000       60.8930000000      112.3830000000
H               166.5900000000       59.7730000000      113.4980000000
H               167.0640000000       59.4650000000      112.0180000000
H               164.6765958148       56.3018332867      118.9544023730
H               163.6890910905       57.4583803491      109.8243404922
