 304 
 
N               175.6140000000       62.9650000000      117.7550000000
C               174.2840000000       62.5860000000      118.1840000000
C               174.3460000000       61.9090000000      119.5720000000
O               175.3790000000       61.9050000000      120.2140000000
C               173.6300000000       61.6340000000      117.1600000000
C               174.3050000000       60.2940000000      117.0100000000
C               173.7820000000       59.1580000000      117.6280000000
C               175.4450000000       60.1480000000      116.2100000000
C               174.3560000000       57.9200000000      117.4460000000
C               176.0460000000       58.8970000000      116.0120000000
C               175.4970000000       57.7890000000      116.6400000000
O               176.1000000000       56.5590000000      116.4520000000
H               175.9690000000       62.4190000000      117.1930000000
H               173.7430000000       63.3880000000      118.2460000000
H               172.7070000000       61.4880000000      117.4190000000
H               173.6160000000       62.0720000000      116.2950000000
H               173.0320000000       59.2380000000      118.1730000000
H               175.8120000000       60.8980000000      115.8010000000
H               173.9880000000       57.1710000000      117.8570000000
H               176.7970000000       58.8120000000      115.4710000000
H               176.7650000000       56.6470000000      115.9470000000
N               173.2480000000       61.2880000000      119.9960000000
C               173.2120000000       60.6440000000      121.3060000000
C               172.6880000000       59.1930000000      121.2570000000
O               171.4920000000       58.9710000000      121.0350000000
C               172.3950000000       61.4920000000      122.3080000000
O               172.8860000000       62.8510000000      122.3300000000
C               172.5020000000       60.9490000000      123.6660000000
H               172.5190000000       61.2280000000      119.5440000000
H               174.1310000000       60.5900000000      121.6120000000
H               171.4690000000       61.4710000000      122.0200000000
H               172.4350000000       63.3030000000      122.8760000000
H               171.9820000000       61.4960000000      124.2750000000
H               172.1630000000       60.0400000000      123.6790000000
H               173.4320000000       60.9510000000      123.9430000000
N               173.5890000000       58.2280000000      121.3950000000
C               173.2410000000       56.7910000000      121.4300000000
C               172.5350000000       56.2300000000      120.1840000000
O               171.8320000000       56.9360000000      119.4640000000
C               172.4230000000       56.4810000000      122.6600000000
H               174.4320000000       58.3800000000      121.4730000000
H               174.1000000000       56.3410000000      121.4510000000
H               172.2010000000       55.5370000000      122.6720000000
H               172.9350000000       56.7020000000      123.4540000000
H               171.6060000000       57.0040000000      122.6460000000
N               172.7390000000       54.9340000000      119.9540000000
C               172.1640000000       54.2090000000      118.8200000000
C               171.6110000000       52.8850000000      119.3570000000
O               170.5250000000       52.4200000000      118.9610000000
C               173.2300000000       53.9710000000      117.7530000000
C               172.7930000000       52.9890000000      116.6850000000
O               171.6140000000       52.9810000000      116.2860000000
O               173.6490000000       52.2230000000      116.2180000000
H               173.2260000000       54.4410000000      120.4630000000
H               171.4520000000       54.7200000000      118.4040000000
H               173.4550000000       54.8170000000      117.3350000000
H               174.0370000000       53.6410000000      118.1780000000
N               174.7210000000       55.8880000000      110.3590000000
C               174.5350000000       55.4510000000      111.7460000000
C               173.9750000000       54.0450000000      111.7350000000
O               172.8920000000       53.7900000000      111.1910000000
C               173.6100000000       56.4100000000      112.5440000000
C               174.1710000000       57.8490000000      112.4930000000
C               173.4320000000       55.9190000000      113.9820000000
C               173.4450000000       58.7980000000      113.4530000000
H               173.9980000000       55.9250000000      109.8950000000
H               175.3940000000       55.4650000000      112.1960000000
H               172.7310000000       56.4180000000      112.1340000000
H               175.1160000000       57.8320000000      112.7130000000
H               174.0960000000       58.1900000000      111.5880000000
H               172.8520000000       56.5300000000      114.4630000000
H               173.0340000000       55.0340000000      113.9750000000
H               174.2960000000       55.8810000000      114.4210000000
H               173.8310000000       59.6850000000      113.3850000000
H               172.5040000000       58.8370000000      113.2200000000
H               173.5400000000       58.4740000000      114.3620000000
N               171.5020000000       58.8010000000      107.5950000000
C               170.6940000000       59.9150000000      108.0320000000
C               171.3070000000       61.1980000000      107.4750000000
O               172.2540000000       61.1570000000      106.7060000000
C               170.6260000000       59.9210000000      109.5560000000
C               169.9870000000       58.7010000000      110.1650000000
C               168.6360000000       58.4160000000      109.9210000000
C               170.6990000000       57.8530000000      111.0130000000
C               168.0080000000       57.3330000000      110.5190000000
C               170.0830000000       56.7740000000      111.6130000000
C               168.7370000000       56.5210000000      111.3730000000
O               168.1330000000       55.4470000000      112.0210000000
H               172.1600000000       58.6330000000      108.1230000000
H               169.7840000000       59.8430000000      107.7030000000
H               171.5260000000       60.0080000000      109.9070000000
H               170.1330000000       60.7060000000      109.8420000000
H               168.1510000000       58.9640000000      109.3470000000
H               171.6000000000       58.0170000000      111.1760000000
H               167.1110000000       57.1550000000      110.3490000000
H               170.5680000000       56.2160000000      112.1780000000
H               168.7000000000       55.0530000000      112.5000000000
N               169.1130000000       65.9940000000      111.0750000000
C               168.2810000000       65.0170000000      111.7350000000
C               168.9510000000       64.1000000000      112.7700000000
O               168.2640000000       63.5260000000      113.6350000000
C               167.5760000000       64.1300000000      110.6980000000
C               166.5420000000       64.8440000000      109.8360000000
C               165.4230000000       65.4140000000      110.6850000000
C               164.3720000000       66.0760000000      109.8180000000
N               164.9270000000       67.1680000000      109.0390000000
H               169.1130000000       65.9250000000      110.2180000000
H               167.6670000000       65.5690000000      112.2440000000
H               168.2470000000       63.7390000000      110.1170000000
H               167.1410000000       63.3970000000      111.1610000000
H               166.9700000000       65.5580000000      109.3380000000
H               166.1750000000       64.2240000000      109.1860000000
H               165.0170000000       64.7060000000      111.2090000000
H               165.7840000000       66.0600000000      111.3120000000
H               163.9830000000       65.4180000000      109.2210000000
H               163.6540000000       66.4100000000      110.3780000000
H               164.2660000000       67.6760000000      108.7270000000
H               165.4610000000       67.6600000000      109.5550000000
H               165.3950000000       66.8390000000      108.3570000000
N               170.2780000000       63.9600000000      112.6930000000
C               171.0190000000       63.0880000000      113.6340000000
C               171.5970000000       63.9630000000      114.7680000000
O               171.8100000000       63.4830000000      115.8880000000
C               172.1370000000       62.3100000000      112.9030000000
H               170.7710000000       64.3550000000      112.1100000000
H               170.4150000000       62.4290000000      114.0120000000
H               172.6080000000       61.7470000000      113.5370000000
H               171.7460000000       61.7570000000      112.2090000000
H               172.7600000000       62.9370000000      112.5040000000
N               171.7470000000       65.2630000000      114.4970000000
C               172.2980000000       66.2030000000      115.4800000000
C               171.6220000000       66.0330000000      116.8390000000
O               170.4130000000       66.1920000000      116.9650000000
C               172.1920000000       67.6580000000      115.0000000000
C               173.4620000000       68.3220000000      114.5480000000
C               174.4240000000       68.6530000000      115.6960000000
O               174.5370000000       67.8630000000      116.6570000000
O               175.0910000000       69.7000000000      115.6500000000
H               171.5340000000       65.6220000000      113.7450000000
H               173.2400000000       65.9950000000      115.5780000000
H               171.5590000000       67.6880000000      114.2660000000
H               171.8160000000       68.1870000000      115.7210000000
H               173.9130000000       67.7420000000      113.9150000000
H               173.2400000000       69.1400000000      114.0760000000
N               172.4000000000       65.5980000000      117.8160000000
C               171.8940000000       65.4200000000      119.1720000000
C               170.5600000000       64.6800000000      119.2870000000
O               169.8000000000       64.9160000000      120.2240000000
H               173.2310000000       65.3980000000      117.7170000000
H               172.5590000000       64.9370000000      119.6880000000
H               171.7970000000       66.2940000000      119.5810000000
N               170.2710000000       63.8050000000      118.3300000000
C               169.0390000000       63.0590000000      118.3580000000
C               169.2600000000       61.7510000000      119.1080000000
O               170.0300000000       60.8990000000      118.6750000000
C               168.5890000000       62.7160000000      116.9250000000
C               167.5420000000       61.6660000000      116.8370000000
N               166.2060000000       61.9520000000      116.9490000000
C               167.6390000000       60.3430000000      116.6210000000
C               165.5030000000       60.8460000000      116.8020000000
N               166.3420000000       59.8400000000      116.6180000000
H               170.7810000000       63.6340000000      117.6590000000
H               168.3660000000       63.5980000000      118.8020000000
H               168.2570000000       63.5230000000      116.5020000000
H               169.3630000000       62.4270000000      116.4170000000
H               168.4230000000       59.8570000000      116.4980000000
H               164.5760000000       60.7840000000      116.8240000000
H               166.1230000000       59.0150000000      116.5150000000
N               168.6420000000       61.6080000000      120.2780000000
C               168.8070000000       60.3950000000      121.0730000000
C               168.0810000000       59.2110000000      120.4350000000
O               166.8460000000       59.0690000000      120.5790000000
C               168.3170000000       60.5930000000      122.5120000000
C               168.6940000000       59.4510000000      123.4180000000
O               168.4530000000       58.3000000000      123.0850000000
N               169.2810000000       59.7960000000      124.5800000000
H               168.1250000000       62.1990000000      120.6280000000
H               169.7570000000       60.2010000000      121.0970000000
H               168.6880000000       61.4170000000      122.8650000000
H               167.3520000000       60.6940000000      122.5100000000
H               169.5120000000       59.1880000000      125.1430000000
H               169.4250000000       60.6250000000      124.7590000000
N               168.8220000000       58.3620000000      119.7300000000
C               168.2730000000       57.1930000000      119.0680000000
C               167.6820000000       56.1550000000      120.0150000000
O               166.8180000000       55.3790000000      119.5980000000
C               169.2860000000       56.5320000000      118.1190000000
C               169.5920000000       57.3520000000      116.8920000000
C               170.6380000000       58.2870000000      116.8930000000
C               168.8630000000       57.1970000000      115.7370000000
C               170.9060000000       59.0460000000      115.7690000000
C               169.1330000000       57.9330000000      114.6090000000
C               170.1660000000       58.8570000000      114.6170000000
H               169.6700000000       58.4540000000      119.6230000000
H               167.5340000000       57.5400000000      118.5440000000
H               170.1110000000       56.3680000000      118.6030000000
H               168.9420000000       55.6680000000      117.8430000000
H               171.1560000000       58.3970000000      117.6570000000
H               168.1690000000       56.5780000000      115.7190000000
H               171.5830000000       59.6830000000      115.7880000000
H               168.6230000000       57.8110000000      113.8410000000
H               170.3600000000       59.3470000000      113.8510000000
N               168.0800000000       56.2040000000      121.2750000000
C               167.5600000000       55.2780000000      122.2810000000
C               166.1310000000       55.6970000000      122.7230000000
O               165.3050000000       54.8620000000      123.0830000000
C               168.5120000000       55.2540000000      123.4860000000
C               168.1960000000       54.1610000000      124.4890000000
C               168.8620000000       54.3770000000      125.8370000000
C               170.3660000000       54.6350000000      125.7360000000
N               170.7090000000       56.0670000000      125.4280000000
H               168.6550000000       56.7690000000      121.5750000000
H               167.5040000000       54.3880000000      121.8980000000
H               169.4210000000       55.1380000000      123.1680000000
H               168.4760000000       56.1140000000      123.9340000000
H               167.2350000000       54.1120000000      124.6130000000
H               168.4790000000       53.3070000000      124.1280000000
H               168.4410000000       55.1290000000      126.2820000000
H               168.7110000000       53.5970000000      126.3940000000
H               170.7870000000       54.3810000000      126.5720000000
H               170.7390000000       54.0650000000      125.0460000000
H               171.5650000000       56.2160000000      125.6210000000
H               170.5680000000       56.2270000000      124.5640000000
H               170.1970000000       56.6070000000      125.9170000000
N               165.8650000000       56.9990000000      122.7390000000
C               164.5350000000       57.4650000000      123.1840000000
C               163.6090000000       57.5210000000      121.9850000000
O               162.4060000000       57.2740000000      122.0640000000
C               164.6530000000       58.8690000000      123.8070000000
H               166.4140000000       57.6180000000      122.5060000000
H               164.1820000000       56.8530000000      123.8490000000
H               163.7770000000       59.1690000000      124.0970000000
H               165.2520000000       58.8360000000      124.5690000000
H               165.0040000000       59.4870000000      123.1470000000
N               164.1820000000       57.8490000000      120.8420000000
C               163.3960000000       57.9270000000      119.5830000000
C               164.1340000000       57.1540000000      118.5170000000
O               164.8120000000       57.7340000000      117.6840000000
C               163.1790000000       59.3790000000      119.1760000000
C               162.3910000000       60.1590000000      120.1970000000
C               162.1770000000       61.6130000000      119.8030000000
O               163.0910000000       62.3170000000      119.3340000000
N               160.9350000000       62.0980000000      119.9860000000
H               165.0180000000       58.0320000000      120.7550000000
H               162.5170000000       57.5370000000      119.7100000000
H               164.0400000000       59.8060000000      119.0430000000
H               162.7140000000       59.4060000000      118.3250000000
H               161.5280000000       59.7340000000      120.3250000000
H               162.8530000000       60.1250000000      121.0490000000
H               160.3200000000       61.5930000000      120.3120000000
H               160.7570000000       62.9130000000      119.7770000000
N               164.0460000000       55.8130000000      118.5380000000
C               164.6840000000       54.8970000000      117.5910000000
C               164.2930000000       55.0520000000      116.1480000000
O               165.0600000000       55.6090000000      115.3350000000
C               164.3310000000       53.5020000000      118.1510000000
C               163.0310000000       53.7500000000      118.8040000000
C               163.2550000000       55.0560000000      119.5190000000
H               165.6360000000       55.0770000000      117.5400000000
H               164.2630000000       52.8360000000      117.4490000000
H               164.9980000000       53.1840000000      118.7800000000
H               162.3110000000       53.8130000000      118.1580000000
H               162.7970000000       53.0390000000      119.4200000000
H               162.4200000000       55.5010000000      119.7320000000
H               163.7330000000       54.9350000000      120.3540000000
N               163.1210000000       54.5320000000      115.8000000000
C               162.6230000000       54.5520000000      114.4470000000
C               162.6880000000       55.9500000000      113.8510000000
O               162.1280000000       56.9140000000      114.3930000000
C               161.1930000000       54.0070000000      114.3510000000
C               160.3080000000       54.5220000000      115.4620000000
O               160.3100000000       53.9120000000      116.5450000000
O               159.6090000000       55.5430000000      115.2550000000
H               162.5890000000       54.1530000000      116.3590000000
H               163.2020000000       53.9680000000      113.9330000000
H               160.8110000000       54.2550000000      113.4950000000
H               161.2160000000       53.0380000000      114.3810000000
N               163.4510000000       56.0360000000      112.7720000000
C               163.6340000000       57.2480000000      112.0240000000
C               163.7470000000       56.7890000000      110.5650000000
O               163.9100000000       55.5900000000      110.3010000000
C               164.9130000000       57.9550000000      112.4920000000
C               165.0140000000       59.4640000000      112.2100000000
C               163.9750000000       60.2720000000      113.0080000000
C               166.4150000000       59.9420000000      112.5590000000
H               163.8860000000       55.3670000000      112.4520000000
H               162.9090000000       57.8820000000      112.1410000000
H               165.0010000000       57.8200000000      113.4490000000
H               165.6710000000       57.5180000000      112.0730000000
H               164.8310000000       59.6070000000      111.2680000000
H               164.0710000000       61.2150000000      112.8030000000
H               163.0820000000       59.9790000000      112.7670000000
H               164.1160000000       60.1320000000      113.9570000000
H               166.4860000000       60.8930000000      112.3830000000
H               166.5900000000       59.7730000000      113.4980000000
H               167.0640000000       59.4650000000      112.0180000000
H               175.5829656095       63.7719643269      117.3577023260
H               172.1246917614       52.3702893676      120.0434355317
H               175.0790287210       56.7136676944      110.3496035445
H               174.4812807660       53.3017165254      112.1722750420
H               170.9931015248       58.0600396279      107.5502778704
H               170.9327046381       62.0867927505      107.7394814336
H               168.8226039288       66.8215454541      111.2770857323
H               163.6890910905       57.4583803491      109.8243404922
