 447 
 
N               209.2660000000       66.7640000000      122.5270000000
C               210.6290000000       66.8260000000      122.0150000000
C               211.6170000000       66.3480000000      123.0580000000
O               211.6480000000       66.8930000000      124.1770000000
C               210.9700000000       68.2700000000      121.6070000000
C               210.3250000000       68.9090000000      120.3800000000
C               210.9610000000       70.3090000000      120.2460000000
C               210.7030000000       68.0820000000      119.1300000000
H               209.0590000000       67.4080000000      123.0580000000
H               210.6900000000       66.2460000000      121.2400000000
H               210.7620000000       68.8370000000      122.3660000000
H               211.9300000000       68.3100000000      121.4770000000
H               209.3590000000       68.9510000000      120.4620000000
H               210.5850000000       70.7630000000      119.4760000000
H               210.7790000000       70.8250000000      121.0470000000
H               211.9200000000       70.2190000000      120.1310000000
H               210.2980000000       68.4800000000      118.3440000000
H               211.6670000000       68.0730000000      119.0270000000
H               210.3810000000       67.1730000000      119.2340000000
N               212.4320000000       65.3670000000      122.7010000000
C               213.4130000000       64.8200000000      123.6080000000
C               214.7930000000       65.3570000000      123.2160000000
O               215.4660000000       64.7770000000      122.3730000000
C               213.4150000000       63.3010000000      123.4720000000
C               214.3160000000       62.6270000000      124.4940000000
O               215.4690000000       62.2660000000      124.1500000000
O               213.8890000000       62.5340000000      125.6740000000
H               212.4280000000       65.0020000000      121.9220000000
H               213.2040000000       65.0700000000      124.5220000000
H               212.5090000000       62.9690000000      123.5740000000
H               213.7060000000       63.0590000000      122.5790000000
N               215.2210000000       66.4240000000      123.8710000000
C               216.4890000000       67.0860000000      123.6000000000
C               217.7110000000       66.5090000000      124.2950000000
O               218.8280000000       66.8550000000      123.9390000000
C               216.3400000000       68.5720000000      123.9270000000
C               215.8180000000       69.3880000000      122.7600000000
O               216.4620000000       70.3040000000      122.2710000000
N               214.6220000000       69.0660000000      122.3270000000
H               214.7710000000       66.7950000000      124.5030000000
H               216.6690000000       66.9350000000      122.6590000000
H               215.7380000000       68.6730000000      124.6810000000
H               217.2010000000       68.9250000000      124.2020000000
H               214.2670000000       69.5050000000      121.6780000000
H               214.1930000000       68.4160000000      122.6920000000
N               217.5170000000       65.5700000000      125.2150000000
C               218.5950000000       64.9390000000      125.9590000000
C               219.6480000000       64.2420000000      125.0870000000
O               220.8620000000       64.3920000000      125.3480000000
C               218.0400000000       63.9650000000      126.9960000000
O               216.8160000000       63.4170000000      126.5300000000
H               216.7370000000       65.2770000000      125.4270000000
H               219.0580000000       65.6670000000      126.4020000000
H               218.6800000000       63.2550000000      127.1610000000
H               217.8990000000       64.4220000000      127.8400000000
H               216.9010000000       63.1820000000      125.7280000000
N               219.2130000000       63.5360000000      124.0450000000
C               220.1120000000       62.8150000000      123.1370000000
C               221.1000000000       63.6770000000      122.3220000000
O               222.0460000000       63.1260000000      121.7320000000
C               219.3110000000       61.9250000000      122.1820000000
O               218.1240000000       62.6190000000      121.7160000000
C               218.9380000000       60.5750000000      122.8270000000
H               218.3810000000       63.4600000000      123.8410000000
H               220.6680000000       62.2900000000      123.7340000000
H               219.8780000000       61.7310000000      121.4200000000
H               218.3340000000       63.1540000000      121.1030000000
H               218.4330000000       60.0420000000      122.1930000000
H               219.7470000000       60.1010000000      123.0760000000
H               218.3990000000       60.7320000000      123.6180000000
N               220.9040000000       64.9890000000      122.3070000000
C               221.7950000000       65.8730000000      121.5840000000
C               223.2800000000       65.6200000000      121.8930000000
O               224.0230000000       65.2490000000      120.9970000000
C               221.4340000000       67.3300000000      121.8240000000
C               222.1750000000       68.2720000000      120.9510000000
C               221.8760000000       68.3570000000      119.5950000000
C               223.2220000000       69.0380000000      121.4570000000
C               222.6160000000       69.1780000000      118.7840000000
C               223.9380000000       69.8570000000      120.6210000000
C               223.6490000000       69.9270000000      119.2980000000
H               220.2570000000       65.3850000000      122.7120000000
H               221.6710000000       65.6720000000      120.6430000000
H               220.4820000000       67.4480000000      121.6810000000
H               221.6110000000       67.5520000000      122.7520000000
H               221.1760000000       67.8580000000      119.2400000000
H               223.4360000000       68.9940000000      122.3610000000
H               222.4180000000       69.2290000000      117.8770000000
H               224.6310000000       70.3710000000      120.9670000000
H               224.1470000000       70.4790000000      118.7400000000
N               223.6950000000       65.8260000000      123.1450000000
C               225.1100000000       65.6580000000      123.4940000000
C               225.7130000000       64.3320000000      123.0600000000
O               226.9200000000       64.2330000000      122.8090000000
C               225.3560000000       65.9130000000      124.9960000000
C               224.8050000000       64.8770000000      125.9730000000
C               225.4000000000       65.1250000000      127.3890000000
C               226.8880000000       65.0370000000      127.3700000000
N               227.5240000000       65.4570000000      128.6660000000
H               223.1850000000       66.0590000000      123.7970000000
H               225.5770000000       66.3350000000      122.9800000000
H               226.3130000000       65.9820000000      125.1370000000
H               224.9730000000       66.7750000000      125.2220000000
H               223.8370000000       64.9320000000      126.0050000000
H               225.0290000000       63.9830000000      125.6700000000
H               225.1290000000       66.0000000000      127.7080000000
H               225.0430000000       64.4730000000      128.0120000000
H               227.1490000000       64.1250000000      127.1690000000
H               227.2300000000       65.5940000000      126.6530000000
H               228.4090000000       65.3850000000      128.6000000000
H               227.3080000000       66.3020000000      128.8430000000
H               227.2330000000       64.9330000000      129.3240000000
N               224.8550000000       63.3180000000      122.9120000000
C               225.2700000000       61.9610000000      122.4780000000
C               225.8660000000       61.9070000000      121.0890000000
O               226.6960000000       61.0420000000      120.7890000000
C               224.0750000000       61.0190000000      122.5610000000
H               224.0110000000       63.3910000000      123.0590000000
H               225.9780000000       61.6860000000      123.0820000000
H               224.3430000000       60.1310000000      122.2780000000
H               223.7540000000       60.9830000000      123.4760000000
H               223.3670000000       61.3430000000      121.9820000000
N               225.3740000000       62.7420000000      120.1870000000
C               225.9100000000       62.7810000000      118.8290000000
C               226.8010000000       63.9950000000      118.5570000000
O               227.5360000000       64.0210000000      117.5710000000
C               224.7720000000       62.7240000000      117.8190000000
O               223.5430000000       63.1760000000      118.3980000000
H               224.7320000000       63.2940000000      120.3370000000
H               226.4790000000       62.0010000000      118.7340000000
H               224.9910000000       63.2730000000      117.0500000000
H               224.6660000000       61.8150000000      117.4980000000
H               222.9310000000       63.1370000000      117.8230000000
N               226.6640000000       65.0300000000      119.3820000000
C               227.4250000000       66.2570000000      119.2540000000
C               228.8610000000       66.1630000000      119.7620000000
O               229.5720000000       67.1520000000      119.8140000000
C               226.6810000000       67.4130000000      119.9440000000
H               226.1140000000       65.0330000000      120.0430000000
H               227.4990000000       66.4280000000      118.3020000000
H               227.1970000000       68.2300000000      119.8540000000
H               225.8120000000       67.5320000000      119.5290000000
H               226.5640000000       67.2070000000      120.8850000000
N               229.2700000000       64.9610000000      120.1420000000
C               230.6230000000       64.7640000000      120.5920000000
C               231.5960000000       65.1230000000      119.4530000000
O               232.7140000000       65.5310000000      119.6900000000
C               230.8390000000       63.2820000000      121.0130000000
O               230.3620000000       62.4140000000      119.9710000000
C               230.1360000000       62.9970000000      122.3260000000
H               228.7790000000       64.2550000000      120.1450000000
H               230.7890000000       65.3350000000      121.3580000000
H               231.7860000000       63.1190000000      121.1440000000
H               230.4800000000       61.6140000000      120.1970000000
H               230.2790000000       62.0710000000      122.5760000000
H               230.4930000000       63.5770000000      123.0170000000
H               229.1850000000       63.1610000000      122.2270000000
N               231.0640000000       65.1040000000      118.2220000000
C               231.8600000000       65.3900000000      117.0410000000
C               232.3100000000       66.8390000000      116.9830000000
O               232.9440000000       67.2660000000      116.0350000000
H               230.2390000000       64.9260000000      118.0590000000
H               232.6390000000       64.8120000000      117.0310000000
H               231.3420000000       65.1830000000      116.2470000000
N               231.9160000000       67.5860000000      118.0240000000
C               232.2200000000       68.9910000000      118.1700000000
C               233.3340000000       69.1790000000      119.2250000000
O               234.0110000000       70.1980000000      119.2140000000
C               230.9650000000       69.7780000000      118.5870000000
C               229.8990000000       69.8040000000      117.5000000000
C               228.7600000000       70.7160000000      117.8520000000
C               230.5330000000       70.2000000000      116.1580000000
H               231.4530000000       67.2690000000      118.6750000000
H               232.5260000000       69.3310000000      117.3150000000
H               230.5920000000       69.3830000000      119.3910000000
H               231.2170000000       70.6880000000      118.8090000000
H               229.5270000000       68.9120000000      117.4210000000
H               228.1040000000       70.7050000000      117.1380000000
H               228.3460000000       70.4140000000      118.6750000000
H               229.0930000000       71.6190000000      117.9710000000
H               229.8500000000       70.2150000000      115.4690000000
H               230.9330000000       71.0800000000      116.2360000000
H               231.2170000000       69.5550000000      115.9200000000
N               233.4730000000       68.2600000000      120.1800000000
C               234.5040000000       68.3930000000      121.1870000000
C               234.3250000000       69.5600000000      122.1000000000
O               233.5420000000       70.4930000000      121.8130000000
H               232.9810000000       67.5590000000      120.2560000000
H               234.5290000000       67.5820000000      121.7180000000
H               235.3640000000       68.4700000000      120.7460000000
N               230.8260000000       70.3800000000      127.1280000000
C               229.3980000000       70.0710000000      126.9810000000
C               228.7250000000       70.8170000000      125.8110000000
O               228.8480000000       72.0230000000      125.6500000000
C               228.6290000000       70.3200000000      128.2740000000
C               227.3490000000       69.5110000000      128.3540000000
O               226.5160000000       69.6110000000      127.4030000000
O               227.2300000000       68.7330000000      129.3200000000
H               231.0280000000       71.2050000000      126.9950000000
H               229.3630000000       69.1240000000      126.7720000000
H               229.1950000000       70.1000000000      129.0310000000
H               228.4160000000       71.2640000000      128.3440000000
N               228.0090000000       70.0550000000      124.9920000000
C               227.2620000000       70.5490000000      123.8510000000
C               225.7530000000       70.5120000000      124.1420000000
O               225.1360000000       69.4280000000      124.1860000000
C               227.5950000000       69.7140000000      122.6050000000
C               228.7200000000       68.6780000000      122.7910000000
C               230.1050000000       69.2880000000      122.9600000000
O               230.4820000000       69.6990000000      124.0370000000
N               230.8500000000       69.3140000000      121.8860000000
H               227.9450000000       69.2030000000      125.0930000000
H               227.5150000000       71.4700000000      123.6840000000
H               226.7920000000       69.2510000000      122.3200000000
H               227.8450000000       70.3160000000      121.8870000000
H               228.5200000000       68.1340000000      123.5680000000
H               228.7300000000       68.0840000000      122.0240000000
H               230.5420000000       69.0120000000      121.1420000000
H               231.6480000000       69.6330000000      121.9240000000
N               225.1740000000       71.6850000000      124.3730000000
C               223.7360000000       71.7970000000      124.6650000000
C               223.0060000000       72.9190000000      123.9380000000
O               223.5320000000       73.9980000000      123.7260000000
C               223.5480000000       71.8680000000      126.1750000000
C               224.2250000000       73.0190000000      126.8500000000
C               224.0440000000       72.8740000000      128.3550000000
C               224.9040000000       73.9000000000      129.0840000000
N               226.3350000000       73.8000000000      128.6720000000
H               225.5940000000       72.4360000000      124.3670000000
H               223.3140000000       71.0000000000      124.3090000000
H               222.5980000000       71.9130000000      126.3660000000
H               223.8770000000       71.0440000000      126.5660000000
H               225.1680000000       73.0340000000      126.6240000000
H               223.8470000000       73.8580000000      126.5450000000
H               223.1110000000       72.9980000000      128.5900000000
H               224.2900000000       71.9780000000      128.6330000000
H               224.5730000000       74.7930000000      128.8980000000
H               224.8310000000       73.7640000000      130.0420000000
H               226.8580000000       73.9200000000      129.3820000000
H               226.4880000000       72.9950000000      128.3240000000
H               226.5130000000       74.4250000000      128.0640000000
N               221.7640000000       72.6210000000      123.5530000000
C               220.9320000000       73.6080000000      122.8260000000
C               220.3930000000       74.5880000000      123.8650000000
O               219.9760000000       74.1930000000      124.9540000000
C               219.7550000000       72.8980000000      122.1250000000
C               220.2470000000       71.8280000000      121.1440000000
C               218.8890000000       73.9010000000      121.3730000000
C               219.1640000000       70.9570000000      120.4620000000
H               221.3810000000       71.8650000000      123.6970000000
H               221.4550000000       74.0650000000      122.1490000000
H               219.2290000000       72.4690000000      122.8180000000
H               220.7630000000       72.2680000000      120.4500000000
H               220.8540000000       71.2390000000      121.6180000000
H               218.1560000000       73.4360000000      120.9400000000
H               218.5340000000       74.5540000000      121.9970000000
H               219.4250000000       74.3530000000      120.7030000000
H               219.5890000000       70.3190000000      119.8670000000
H               218.6580000000       70.4800000000      121.1390000000
H               218.5650000000       71.5250000000      119.9520000000
N               214.0980000000       74.8780000000      119.9570000000
C               214.4520000000       74.6210000000      118.5530000000
C               213.5450000000       75.3880000000      117.6220000000
O               212.2990000000       75.4660000000      117.8240000000
C               214.3540000000       73.1300000000      118.2760000000
C               215.4190000000       72.1610000000      118.7840000000
C               215.6950000000       72.3690000000      120.2680000000
C               214.9260000000       70.7160000000      118.5690000000
H               213.5760000000       74.2830000000      120.2940000000
H               215.3610000000       74.9200000000      118.3970000000
H               213.5040000000       72.8300000000      118.6340000000
H               214.3090000000       73.0230000000      117.3130000000
H               216.2390000000       72.3240000000      118.2920000000
H               216.3740000000       71.7410000000      120.5620000000
H               216.0080000000       73.2750000000      120.4150000000
H               214.8800000000       72.2230000000      120.7730000000
H               215.5980000000       70.0940000000      118.8890000000
H               214.1000000000       70.5800000000      119.0580000000
H               214.7700000000       70.5640000000      117.6240000000
N               223.5890000000       76.2310000000      119.5850000000
C               224.4550000000       75.3650000000      120.3790000000
C               225.6750000000       76.1020000000      121.0180000000
O               226.5070000000       76.6830000000      120.3470000000
C               224.9430000000       74.1100000000      119.5730000000
C               225.6580000000       73.1730000000      120.4810000000
C               223.7270000000       73.3710000000      118.9210000000
H               223.9560000000       76.5360000000      118.8690000000
H               223.8930000000       75.0660000000      121.1100000000
H               225.5440000000       74.4090000000      118.8730000000
H               225.9570000000       72.4000000000      119.9780000000
H               226.4250000000       73.6210000000      120.8700000000
H               225.0590000000       72.8860000000      121.1880000000
H               224.0440000000       72.5990000000      118.4270000000
H               223.1140000000       73.0810000000      119.6150000000
H               223.2680000000       73.9750000000      118.3160000000
N               219.3910000000       70.2690000000      113.6040000000
C               219.1100000000       69.0820000000      114.4050000000
C               218.0240000000       68.1630000000      113.8810000000
O               216.9410000000       68.6060000000      113.4860000000
C               218.8160000000       69.5090000000      115.8630000000
C               219.9100000000       70.4790000000      116.3400000000
C               217.4110000000       70.1800000000      115.9750000000
H               218.7040000000       70.7630000000      113.4510000000
H               219.9120000000       68.5390000000      114.3510000000
H               218.8150000000       68.7200000000      116.4270000000
H               219.7280000000       70.7480000000      117.2540000000
H               220.7730000000       70.0390000000      116.2990000000
H               219.9200000000       71.2630000000      115.7680000000
H               217.2480000000       70.4390000000      116.8960000000
H               217.3820000000       70.9670000000      115.4080000000
H               216.7290000000       69.5520000000      115.6910000000
N               218.3150000000       66.8710000000      113.8370000000
C               217.3400000000       65.8760000000      113.3780000000
C               216.3820000000       65.5270000000      114.4910000000
O               216.7430000000       65.5520000000      115.6750000000
C               218.0260000000       64.5990000000      112.8850000000
O               219.4170000000       64.6530000000      113.1010000000
H               219.0750000000       66.5420000000      114.0690000000
H               216.8540000000       66.2700000000      112.6370000000
H               217.6540000000       63.8300000000      113.3450000000
H               217.8470000000       64.4770000000      111.9390000000
H               219.7710000000       63.9430000000      112.8250000000
N               215.1300000000       65.2770000000      114.1300000000
C               214.1360000000       64.9350000000      115.1420000000
C               213.6500000000       63.5230000000      114.8360000000
O               213.3240000000       63.2100000000      113.6910000000
C               212.9540000000       65.9720000000      115.2010000000
C               211.8360000000       65.4590000000      116.1160000000
C               213.4640000000       67.2830000000      115.7020000000
H               214.8380000000       65.2990000000      113.3210000000
H               214.5370000000       64.9690000000      116.0250000000
H               212.5920000000       66.0870000000      114.3090000000
H               211.1160000000       66.1080000000      116.1420000000
H               211.4990000000       64.6160000000      115.7740000000
H               212.1850000000       65.3280000000      117.0110000000
H               212.7350000000       67.9220000000      115.7380000000
H               213.8360000000       67.1680000000      116.5900000000
H               214.1530000000       67.6130000000      115.1040000000
N               213.6810000000       62.6330000000      115.8220000000
C               213.2220000000       61.2700000000      115.6560000000
C               211.7060000000       61.3560000000      115.7690000000
O               211.1280000000       61.1830000000      116.8320000000
C               213.8290000000       60.4150000000      116.7720000000
C               213.5300000000       58.9290000000      116.6230000000
O               214.4170000000       58.2100000000      116.1220000000
O               212.4290000000       58.4870000000      116.9620000000
H               213.9730000000       62.8100000000      116.6120000000
H               213.4810000000       60.8660000000      114.8130000000
H               214.7900000000       60.5450000000      116.7840000000
H               213.4900000000       60.7230000000      117.6270000000
N               209.3430000000       59.6520000000      118.4160000000
C               209.3320000000       59.9560000000      119.8380000000
C               209.8180000000       61.3440000000      120.2990000000
O               209.5520000000       61.7470000000      121.4240000000
C               210.0800000000       58.8400000000      120.5690000000
C               211.5610000000       58.8090000000      120.2590000000
O               212.2510000000       59.8050000000      120.4360000000
N               212.0560000000       57.6760000000      119.8210000000
H               210.0010000000       60.0070000000      117.9910000000
H               208.3910000000       60.0000000000      120.0710000000
H               209.9580000000       58.9500000000      121.5250000000
H               209.6880000000       57.9860000000      120.3300000000
H               212.8960000000       57.6130000000      119.6460000000
H               211.5410000000       56.9970000000      119.7090000000
N               210.5020000000       62.0670000000      119.4260000000
C               211.0300000000       63.3880000000      119.7470000000
C               212.5140000000       63.5120000000      119.8920000000
O               213.0240000000       64.6330000000      119.9010000000
H               210.6750000000       61.8060000000      118.6250000000
H               210.7430000000       64.0030000000      119.0540000000
H               210.6210000000       63.6830000000      120.5760000000
N               213.2180000000       62.4040000000      120.0430000000
C               214.6830000000       62.4880000000      120.1710000000
C               215.2860000000       63.4970000000      119.1840000000
O               214.9590000000       63.4740000000      118.0120000000
C               215.3440000000       61.1520000000      119.9850000000
C               215.0330000000       60.1020000000      121.0690000000
C               215.7100000000       58.7480000000      120.7960000000
O               215.3090000000       58.0210000000      119.8820000000
O               216.6920000000       58.4170000000      121.4900000000
H               212.8890000000       61.6100000000      120.0750000000
H               214.8540000000       62.7940000000      121.0750000000
H               215.0780000000       60.7940000000      119.1240000000
H               216.3040000000       61.2850000000      119.9520000000
H               215.3240000000       60.4370000000      121.9310000000
H               214.0730000000       59.9740000000      121.1240000000
N               216.1120000000       64.4080000000      119.7000000000
C               216.7680000000       65.3540000000      118.8250000000
C               218.2140000000       64.9100000000      118.6580000000
O               218.8000000000       64.4000000000      119.6060000000
C               216.6220000000       66.7920000000      119.3880000000
C               217.1980000000       67.8060000000      118.3970000000
C               215.1380000000       67.0760000000      119.6610000000
H               216.2980000000       64.4880000000      120.5360000000
H               216.3560000000       65.3730000000      117.9470000000
H               217.1170000000       66.8710000000      120.2190000000
H               217.1020000000       68.7010000000      118.7570000000
H               218.1380000000       67.6160000000      118.2490000000
H               216.7200000000       67.7440000000      117.5550000000
H               215.0400000000       67.9740000000      120.0140000000
H               214.6360000000       66.9970000000      118.8350000000
H               214.8000000000       66.4370000000      120.3070000000
N               218.7230000000       64.9790000000      117.4290000000
C               220.0730000000       64.5280000000      117.1370000000
C               220.8430000000       65.4450000000      116.1520000000
O               220.2470000000       66.1110000000      115.3020000000
C               220.0510000000       63.0600000000      116.6770000000
O               219.0020000000       62.8720000000      115.7180000000
C               219.7890000000       62.1520000000      117.8730000000
H               218.2960000000       65.2870000000      116.7490000000
H               220.5770000000       64.5870000000      117.9640000000
H               220.9070000000       62.8410000000      116.2780000000
H               219.1530000000       63.3460000000      115.0410000000
H               219.7760000000       61.2270000000      117.5810000000
H               220.4910000000       62.2720000000      118.5310000000
H               218.9330000000       62.3780000000      118.2700000000
N               222.1550000000       65.4600000000      116.2730000000
C               223.0040000000       66.2670000000      115.4130000000
C               222.7650000000       65.9280000000      113.9350000000
O               223.1600000000       64.8450000000      113.4730000000
C               224.4850000000       66.0400000000      115.7830000000
C               225.5720000000       66.9210000000      115.1880000000
C               225.3190000000       68.3650000000      115.6240000000
C               226.9360000000       66.4400000000      115.6650000000
H               222.5850000000       65.0000000000      116.8590000000
H               222.7820000000       67.2020000000      115.5460000000
H               224.5540000000       66.1130000000      116.7480000000
H               224.7010000000       65.1230000000      115.5520000000
H               225.5570000000       66.8730000000      114.2190000000
H               226.0050000000       68.9410000000      115.2520000000
H               224.4490000000       68.6520000000      115.3050000000
H               225.3420000000       68.4200000000      116.5920000000
H               227.6290000000       67.0030000000      115.2850000000
H               226.9760000000       66.4880000000      116.6330000000
H               227.0730000000       65.5230000000      115.3810000000
H               208.6854061460       66.7919052186      121.8398813236
H               234.8355533078       69.6060287720      122.9586132261
H               231.0928769822       70.1770145607      127.9632087091
H               220.3747845867       75.5678299543      123.6659988457
H               214.8459517320       74.8941081749      120.4573086381
H               213.9259823056       75.8507858549      116.8215740288
H               222.8569136522       75.7729213626      119.3315960906
H               225.7921320772       76.1067655215      122.0111049120
H               219.9949646968       70.7827141389      114.0298220621
H               211.1549840237       61.5588701487      114.9595402440
H               209.3990426959       58.7613173093      118.2996231948
H               222.2907378856       66.5795589356      113.3429304093
