 374 
 
N                70.2181138149       39.3750802979       41.6860836995
C                70.1886087267       38.3273355754       40.6844839289
C                68.8135354870       38.2842228032       40.0120895056
O                68.7011044337       38.3871731039       38.7942903067
C                70.5993812852       37.0158200868       41.3432464701
C                71.9817362850       37.0942833261       41.9434475138
C                72.2978667287       36.2911086465       43.0329526550
C                72.9672047176       37.9251168027       41.4214554103
C                73.5490072924       36.3573467546       43.6196059673
C                74.2180464306       37.9914616539       42.0074843488
C                74.5061874505       37.2216179783       43.1197794748
H                70.5274350846       39.1314573327       42.6172661784
H                70.8869399434       38.5806366682       39.8755490701
H                69.8725322656       36.7541399484       42.1173719930
H                70.5834740800       36.2256934909       40.5905982493
H                71.5657066777       35.5837752621       43.3968951992
H                72.7814958170       38.5190555032       40.5394581371
H                73.7853909804       35.7133199555       44.4532976895
H                74.9684198061       38.6415797724       41.5804987991
H                75.4849676833       37.2709311769       43.5684564838
N                67.7570630472       38.1458602592       40.8128041940
C                66.4316190544       38.0595354069       40.2257043876
C                66.1550237828       39.3303542463       39.4166566767
O                65.7106413041       39.2835208564       38.2761118677
C                65.3653250712       37.8011664961       41.3043202518
C                65.6587056801       36.4587891203       41.9889401012
C                63.9724104385       37.8051700082       40.6792356222
C                64.8041555338       36.1968814362       43.2234091936
H                67.8515808915       38.1036896146       41.8204204205
H                66.4219691134       37.2362795682       39.4959794475
H                65.4360640103       38.6066815942       42.0428323634
H                65.5070366947       35.6566452093       41.2648054032
H                66.7020583943       36.4430589194       42.3038967345
H                63.2125767989       37.6487815753       41.4380329896
H                63.7657332818       38.7491451648       40.1835412438
H                63.8928922263       37.0112170773       39.9412571615
H                65.1106963106       35.2606412360       43.6828895025
H                64.9414970746       36.9939190026       43.9495544409
H                63.7493459947       36.1206454679       42.9780035119
N                68.0807407123       39.5745711147       36.1353169792
C                67.5758604373       38.6947440846       35.0992467092
C                66.2702288401       39.2690958464       34.5602698747
O                66.0418765229       39.3029557024       33.3567462249
C                67.2951741492       37.2737720759       35.5760656249
C                68.5274331750       36.4217178680       35.8964599977
C                68.0437929704       35.0187181342       36.2593925408
C                69.5031896489       36.3360482317       34.7272414026
H                68.2126591360       39.2091029948       37.0720036486
H                68.2778896784       38.6941214711       34.2566321685
H                66.6621578841       37.3361228031       36.4631065583
H                66.7286530144       36.7748438736       34.7850040908
H                69.0397462819       36.8689174543       36.7539130665
H                68.8828470533       34.3610298836       36.4611092559
H                67.4105928727       35.0538472930       37.1412695166
H                67.4784006606       34.5936846628       35.4333516319
H                70.3282284403       35.6759208642       34.9832047170
H                69.0124585133       35.9302855030       33.8454219342
H                69.9141654562       37.3111361808       34.4806673173
N                71.3103217305       32.3959441631       17.9798889561
C                72.4844744458       31.8013153841       18.5921778299
C                73.0461003123       32.7490027557       19.6529440103
O                73.5233094592       32.3012507897       20.6946712147
C                73.5552847911       31.4682821129       17.5459844189
C                73.2162866002       30.2236311223       16.7347014855
S                74.4497942858       30.0559123245       15.3956963566
C                74.1293523057       28.3596077272       14.8483466260
H                71.2994702715       32.4727485719       16.9613880098
H                72.2015811918       30.8787920263       19.1215701349
H                73.6624573570       32.3152287178       16.8672249474
H                74.5180506625       31.3124772790       18.0360760301
H                73.2679416481       29.3242154388       17.3493906452
H                72.2309675425       30.3070897680       16.2757925422
H                74.8080832267       28.1685952959       14.0242210285
H                74.3293117212       27.6707769164       15.6647049557
H                73.1003869859       28.2750473689       14.5095641229
N                73.0062067350       34.0420700161       19.3673018443
C                73.5272945356       35.0708551286       20.2390535594
C                72.4217714595       35.6027705922       21.1895928992
O                72.4978643087       36.6879536585       21.7047031880
C                74.1132852555       36.2496894744       19.4520662419
C                74.7528705636       37.3138638462       20.3101785026
C                74.7044671047       38.6450460825       19.9077860873
C                75.4331343874       37.0071713053       21.4819982902
C                75.2776523699       39.6391616772       20.6821892137
C                76.0129235342       37.9964376196       22.2555040578
C                75.9293808596       39.3202813030       21.8610206584
H                72.6869340431       34.3724467729       18.4591854126
H                74.3263157637       34.5938909359       20.8243523137
H                74.8504401169       35.8806572506       18.7342576765
H                73.2982128975       36.6965450456       18.8849648059
H                74.2245334679       38.9104987317       18.9755462453
H                75.5113883679       35.9790871687       21.8014603150
H                75.2142893610       40.6698703188       20.3654620223
H                76.5426249724       37.7350171133       23.1614797145
H                76.3887484107       40.0916600017       22.4608403770
N                71.4318168756       34.7208337660       21.4142860968
C                70.3630368104       34.8986924597       22.3756172182
C                70.3411626870       33.6701893124       23.2852505180
O                70.1664875388       33.7479625515       24.4900414157
C                68.9780689254       35.0984981386       21.7205772981
C                68.6698024349       36.5940104238       21.5962515725
C                67.8944331106       34.3696895009       22.4988562032
C                67.5609000993       36.9301206239       20.6070654750
H                71.2530357523       34.0391387795       20.6888521540
H                70.6211242864       35.7573024137       23.0042587304
H                69.0343929725       34.6563270599       20.7258178280
H                68.3898020077       36.9651773139       22.5840302536
H                69.5836448517       37.0976890850       21.2797203734
H                66.9555679555       34.4556966123       21.9697542114
H                68.1178564178       33.3105292025       22.5964060136
H                67.7836312328       34.7996533640       23.4916447844
H                67.4154509476       38.0071107809       20.5784223461
H                67.8213839144       36.5807385140       19.6106965940
H                66.6238295498       36.4743241977       20.9050373117
N                70.5923603355       32.5130457710       22.6586043498
C                70.7249334969       31.2809324101       23.3973147254
C                72.1179907063       31.2526657941       24.0288505637
O                72.2489348635       30.9605124203       25.2111892887
C                70.3859819572       30.0659718363       22.5193453879
C                68.9182058241       30.1870846252       22.0847597502
C                70.6295768427       28.7836630642       23.3082466773
C                68.4793565255       29.2005643677       21.0100762835
H                70.5097903904       32.4538920201       21.6536266063
H                70.0334254534       31.3083027160       24.2527713873
H                71.0336972709       30.0867448543       21.6362375759
H                68.2918664194       30.0618231183       22.9697705142
H                68.7562460620       31.1911005459       21.6900963224
H                70.3699203939       27.9079943535       22.7219896456
H                71.6725529242       28.7050858525       23.6047515451
H                70.0199569338       28.7857060674       24.2086092653
H                67.4411985943       29.3955907331       20.7523796892
H                69.0788533790       29.3304669569       20.1129406572
H                68.5578868351       28.1710225096       21.3455873949
N                73.1530931250       31.6287820756       23.2744787329
C                74.4736264231       31.7248468253       23.8645366055
C                74.4549743683       32.6257895702       25.0923957836
O                74.9350647578       32.1763291840       26.1308536910
C                75.5569482071       32.1614459160       22.8440462748
O                75.7263670626       31.1822820213       21.8530012828
C                76.9093241207       32.3577026374       23.5221623239
H                73.0811509021       31.8344086878       22.2818291279
H                74.7713342427       30.7393991829       24.2530465980
H                75.2321362602       33.1047469072       22.3865820751
H                75.0031590254       31.2674434166       21.2137477874
H                77.6322550773       32.6828297481       22.7784613645
H                76.8552520071       33.0898129192       24.3209889410
H                77.2432374041       31.4089371306       23.9322248756
N                73.9860989946       33.8772018838       25.0396107575
C                74.1359201488       34.7548776579       26.1970596687
C                73.1632141355       34.3888278434       27.3062275476
O                73.5072069220       34.4628046525       28.4818702571
C                73.8641887377       36.1571066502       25.6480090240
C                72.8336959745       35.8841892823       24.5643370902
C                73.3068688203       34.5669527611       23.9551158835
H                75.1437561163       34.6789833257       26.6201744947
H                73.5039916053       36.8380240366       26.4146841094
H                74.7775800488       36.5647708558       25.2135139315
H                71.8400626164       35.7600541164       24.9967637210
H                72.8114009866       36.6659367502       23.8107893417
H                72.4715193765       33.9850389628       23.5785079740
H                73.9903418454       34.7632477318       23.1294878089
N                71.9282987375       34.0137928642       26.9716038066
C                71.0439166465       33.5907901785       28.0435141384
C                71.6615289856       32.3625448562       28.7046165964
O                71.6311854053       32.1796468888       29.9180177762
C                69.6155185339       33.3141574042       27.5580070617
C                68.7821831219       32.6875468480       28.6734600056
C                68.9653436013       34.6094454994       27.0845554676
H                71.6147621046       33.9225268345       26.0150748279
H                71.0298136048       34.3865915299       28.8011525352
H                69.6730979793       32.6161691793       26.7179761761
H                67.7817740788       32.4691883957       28.3107699472
H                69.2272659884       31.7632740457       29.0326573051
H                68.7014466607       33.3720256141       29.5144833321
H                67.9596879982       34.4019299437       26.7315289015
H                68.9116626176       35.3278408430       27.8979825546
H                69.5292964451       35.0394466907       26.2653574111
N                72.2650746128       31.5088404435       27.8770709244
C                72.9373652670       30.3613171430       28.4422829008
C                74.0997643509       30.8410087294       29.3020768744
O                74.2550138474       30.4047314643       30.4459949794
C                73.4387291818       29.3722652633       27.3925755680
C                73.7728872295       28.0216740423       28.0104618508
S                72.2819164066       27.1909380454       28.6797109222
C                72.4541195179       27.5177593529       30.4581900104
H                72.1761845708       31.5560319596       26.8679651754
H                72.2296602414       29.8582843539       29.1120556337
H                72.6601984803       29.2225864835       26.6448247891
H                74.3185341767       29.7903592756       26.8997734239
H                74.1708310205       27.3514231131       27.2495357270
H                74.4814603101       28.0991747909       28.8329347168
H                71.7481465318       26.8675439987       30.9636244206
H                73.4728784502       27.2990453864       30.7646402158
H                72.2111610484       28.5529136840       30.6782116457
N                74.9305016572       31.7173591772       28.7615865759
C                76.1225114730       32.1445147832       29.4656665300
C                75.7312344538       32.8158776045       30.7800297322
O                76.3231269729       32.5202073585       31.8165775139
C                76.9824216750       33.0676006084       28.5864196432
C                78.0619619936       33.7532014670       29.4143879388
C                77.6516475047       32.2920334292       27.4561605965
H                74.8347998019       31.9905583996       27.7834039751
H                76.7078612422       31.2571316237       29.7540059268
H                76.3117931580       33.8263446730       28.1725117241
H                78.6638292896       34.3982785919       28.7806605069
H                77.6222734832       34.3473845881       30.2073368214
H                78.7141166609       33.0077752438       29.8627605464
H                78.2081355681       32.9793835107       26.8237483749
H                78.3491177110       31.5688607685       27.8700152580
H                76.9224545977       31.7732325726       26.8449867287
N                74.7536593701       33.7146767102       30.7419763472
C                74.3383685214       34.4137434254       31.9387550197
C                73.5999219508       33.4769909370       32.8878711371
O                73.7584142979       33.5555006605       34.1028124305
C                73.4449733955       35.6138099296       31.6332020658
C                74.1100362599       36.6824890889       30.7588494990
C                73.1239765240       37.8255635806       30.5354189127
C                75.3944403674       37.2234773219       31.3753147809
H                74.2931186262       33.9639450184       29.8721625113
H                75.2369828762       34.7462097768       32.4733738558
H                72.5467074962       35.2523006096       31.1295628183
H                73.1502272739       36.0538324314       32.5888405085
H                74.3457516985       36.2283425948       29.7931925481
H                73.5540143144       38.5729349962       29.8744891036
H                72.2041916709       37.4514127497       30.0944540906
H                72.8849786680       38.3068012712       31.4807831509
H                75.7908970999       38.0194749693       30.7519422521
H                75.2082217200       37.6260658780       32.3681893734
H                76.1500812238       36.4470052199       31.4505409987
N                72.7887065694       32.5903121954       32.3170536698
C                72.1573540497       31.5436225956       33.0839927973
C                73.2154043702       30.7520426542       33.8436814067
O                73.0580058211       30.4469615687       35.0177891384
H                72.5798260022       32.6054225914       31.3236294656
H                71.4491565420       31.9482241988       33.8144487592
H                71.6345628233       30.8796627469       32.3950825276
N                74.2944435546       30.4468437939       33.1254552746
C                75.4182736355       29.6902274587       33.6279764640
C                76.1855187371       30.5013288170       34.6647554353
O                76.6144527215       29.9579743085       35.6796834309
C                76.3521721410       29.2709536216       32.4640742825
O                75.6787702097       28.4134450836       31.5737311757
C                77.5835126386       28.5258687083       32.9647755653
H                74.3193445620       30.7116650561       32.1453379119
H                75.0588791369       28.7790638346       34.1265242593
H                76.6587811184       30.1927840681       31.9476744416
H                75.0599562158       28.9546414797       31.0541202934
H                78.2084887769       28.2612971462       32.1163092426
H                78.1546589211       29.1339871856       33.6582188923
H                77.2717761201       27.6109643224       33.4600037766
N                76.3409594153       31.7942243952       34.3927491722
C                77.0688706710       32.6921465837       35.2648635020
C                76.2794038959       32.8830034239       36.5563124102
O                76.8707998910       32.9836403433       37.6283724885
C                77.3853358339       34.0229829944       34.5509440803
C                78.5603832165       33.8321157956       33.5836447441
C                77.6792257895       35.1241718022       35.5642374183
C                78.8002811896       35.0416046671       32.6863357333
H                76.1502050526       32.1426613602       33.4537783467
H                78.0107210281       32.2200602231       35.5795454131
H                76.4958787539       34.2991749105       33.9768934826
H                79.4631173438       33.6239724760       34.1602098163
H                78.3460485842       32.9686687472       32.9529426706
H                77.9161703168       36.0559164767       35.0608139648
H                76.8192606489       35.2909460633       36.2068817888
H                78.5221779811       34.8411309020       36.1893678999
H                79.5548046866       34.8066683119       31.9407683379
H                77.8803124048       35.3093079435       32.1733024939
H                79.1385073226       35.9047489215       33.2508015708
N                74.9549160519       32.9060658406       36.4463732784
C                74.0868415796       32.9498767578       37.6092339007
C                74.1664209996       31.5999986733       38.3207751580
O                74.4174692713       31.5163275651       39.5202950212
C                72.6674526326       33.3114375680       37.1761250363
C                71.6786073730       33.5628674592       38.2883133130
C                70.7743354106       34.6103025873       38.1519539310
C                71.5811989751       32.7583932473       39.4188684246
C                69.7673431211       34.8055474650       39.0798912422
C                70.6022947776       32.9795552264       40.3737221987
C                69.6745050809       33.9877225204       40.1933751301
H                74.5226424369       32.8837544056       35.5255202580
H                74.4601534403       33.7046935872       38.3128892967
H                72.7440135320       34.2104062141       36.5599644563
H                72.3003548424       32.4983829087       36.5428075560
H                70.8499534775       35.2871282220       37.3146273948
H                72.2832773803       31.9596848775       39.5690404105
H                69.0629153526       35.6091972171       38.9303202572
H                70.5526301791       32.3624996522       41.2592996168
H                68.9062497753       34.1585911884       40.9306883028
N                73.9465558731       30.5231475066       37.5739743305
C                74.0966229390       29.2176173350       38.1839725370
C                75.3800794245       29.2543571724       39.0046725645
O                75.4190030416       28.8166846769       40.1472511007
C                74.1238351856       28.0955970648       37.1385444553
C                72.7037964291       27.8347399988       36.6256938881
C                74.7286090462       26.8290861307       37.7370516825
C                72.6658298095       26.9696579043       35.3719796479
H                73.7506482312       30.5759184300       36.5786321405
H                73.2796335583       29.0378480842       38.8985012572
H                74.7584930489       28.4379792242       36.3158187207
H                72.1338332183       27.3507281824       37.4199166507
H                72.2370744372       28.7927907554       36.3995847280
H                74.7208949319       26.0297387254       37.0031744000
H                75.7554834711       27.0006424407       38.0492627280
H                74.1603607904       26.5161586362       38.6095591694
H                71.6389620329       26.8483491414       35.0382410376
H                73.2316667012       27.4432740477       34.5729358528
H                73.0837455448       25.9843946600       35.5558220305
N                76.4367209429       29.7785882820       38.3807471573
C                77.7137200718       29.8825504572       39.0450654622
C                77.6119463132       30.8436325802       40.2201305345
O                78.1939348623       30.5945503862       41.2776124389
C                78.7897960914       30.3420988024       38.0506990308
C                80.1613533322       30.2344324087       38.6552762542
C                80.8951918948       29.0582317880       38.5433789503
C                80.7030818343       31.2999694011       39.3635462800
C                82.1388069107       28.9459151479       39.1409205766
C                81.9444260457       31.1884348250       39.9675747077
C                82.6592940184       30.0067871823       39.8633625702
H                76.4308447743       29.9406964739       37.3762110277
H                77.9865736414       28.9117442571       39.4867109374
H                78.7189619873       29.7134683696       37.1614701265
H                78.5661139858       31.3746429880       37.7772887125
H                80.5009486149       28.2269463327       37.9759592613
H                80.1516651134       32.2283220617       39.4272652525
H                82.7046117376       28.0314062162       39.0362443719
H                82.3537444211       32.0225673482       40.5182165787
H                83.6232327680       29.9149273561       40.3388159697
N                76.8860122049       31.9397226815       40.0925142892
C                76.7395887109       32.8321191334       41.2232291401
C                76.2565516990       32.0616908914       42.4578358253
O                76.7632717831       32.2485688350       43.5566591029
C                75.8432643946       34.0314445964       40.8400729639
C                74.4842641467       34.0221802735       41.5295032041
C                76.5683031368       35.3485140515       41.0885219831
H                76.6161250067       32.3089004944       39.1819309969
H                77.7392614522       33.1809413052       41.5094300422
H                75.6737999256       33.9662218777       39.7640776584
H                73.9277394981       34.9103817911       41.2446768021
H                73.9011874392       33.1547706158       41.2406065263
H                74.6055260903       34.0223829860       42.6087505921
H                75.9202771471       36.1775313240       40.8169040251
H                76.8242487001       35.4440444235       42.1387625920
H                77.4681198190       35.3958903927       40.4810184101
N                75.2406209962       31.2132084365       42.2585458457
C                74.6653737297       30.4428981594       43.3379391998
C                75.5578583688       29.2449396783       43.6913654504
O                75.6599744897       28.8609432387       44.8526311946
C                73.2034699939       30.0547818402       43.0177379276
C                72.8335490113       28.6084937484       43.3296166818
S                73.4601157662       27.4632608750       42.0385512605
C                72.4090110066       26.0197064303       42.3719058799
H                74.8709518515       31.0834886696       41.3254562961
H                74.6838993388       31.0723100524       44.2386098363
H                72.5414040053       30.7019584443       43.5954459361
H                73.0168845147       30.2450735356       41.9581388094
H                73.2333526341       28.3009770239       44.2968469761
H                71.7507337571       28.4829701608       43.3387750852
H                72.7547563624       25.2366679513       41.7046066571
H                72.5320769710       25.7105386084       43.4056482995
H                71.3722200801       26.2640314145       42.1590368307
N                76.2495077408       28.7225094760       42.6788115687
C                77.0392743071       27.5214863884       42.8341249483
C                78.3540963141       27.8184321726       43.5624970937
O                78.7949085186       27.0704281940       44.4338040355
H                75.9673100867       28.9575299953       41.7283074160
H                76.4704401578       26.7730471122       43.3978656846
H                77.2605097486       27.1231355774       41.8431929754
H                70.7738824911       40.0305994248       41.4188462532
H                66.3374081749       40.2280448275       39.8177645849
H                68.8924001409       39.8829157839       35.8983939181
H                65.5826372690       39.6265523232       35.1922846677
H                70.5829092942       31.9094445790       18.1901014729
H                78.8783009447       28.6386810200       43.3335837180
