 465 
 
N                21.6300467790       11.5298558580       17.4070807201
C                23.0212674276       11.3974049267       17.0702248503
C                23.3717722373       10.0240985384       16.4562731861
O                24.5310839398        9.7251546693       16.2127207589
C                23.9689585590       11.6416866471       18.2487228673
C                24.0100470710       13.0237167798       18.9359486831
C                24.3718407469       14.1768561423       17.9998426374
C                22.7191351877       13.3508506509       19.6833643375
H                21.2994075661       11.1629256383       18.2898145962
H                23.2047060197       12.1210765355       16.2661776603
H                23.7261430453       10.8806843469       18.9953208543
H                24.9655759273       11.3983562529       17.8716792768
H                24.8090256960       12.9289227162       19.6823435045
H                24.4440898827       15.1069893491       18.5595153783
H                25.3258817489       13.9973804680       17.5115854835
H                23.6030529597       14.3084938003       17.2435254558
H                22.8822186613       14.1412870501       20.4133283870
H                21.9530730283       13.6827552226       18.9902946295
H                22.3392137101       12.4805157185       20.2111332570
N                23.2067022579       10.0757020010       12.1002977984
C                24.3101887606       10.8018870886       11.5174814657
C                25.5468800859        9.9027497291       11.4150989726
O                25.6172367503        8.8172706259       11.9692888725
C                24.5222343725       12.1267094629       12.2621475273
C                24.8005741244       12.0710711539       13.7693748866
C                26.2459089064       11.7103626647       14.0982520202
C                24.4880583208       13.4514623958       14.3486798654
H                23.2128923186        9.9551701020       13.1001646251
H                23.9828113721       11.0261481223       10.4930797431
H                25.3408953542       12.6763791232       11.7991476479
H                23.5975050980       12.6928211835       12.1263436917
H                24.1457766770       11.3322436129       14.2465979033
H                26.3503485363       11.5746319845       15.1731487308
H                26.5454826169       10.7765915313       13.6287652152
H                26.9025002056       12.5176343362       13.7810377504
H                24.7602660451       13.4857124831       15.3974066658
H                25.0763966936       14.2118037366       13.8390866584
H                23.4308666484       13.6917515225       14.2547952224
N                26.5014975752       10.3428089136       10.5630536020
C                27.7037165983        9.5677737097       10.3787203795
C                28.7879534795       10.0159628892       11.3638584717
O                28.7611970281       11.1000711270       11.9231862257
C                28.2641140895        9.7097670157        8.9486507539
O                28.9141248858       10.9727870280        8.8622668587
C                27.1868494777        9.5806344768        7.8798448448
H                26.5508340967       11.3211971092       10.3253274542
H                27.4255980888        8.5265992118       10.5714088852
H                29.0254513460        8.9248315205        8.8154419208
H                28.8897945792       11.2356266807        7.9326287799
H                27.6458769278        9.6158971867        6.8938774142
H                26.6423166996        8.6471975876        7.9787044040
H                26.4741188283       10.3971605063        7.9641060929
N                29.8045789102        9.1553421917       11.5149582513
C                30.9031480845        9.4612256639       12.4193793000
C                31.5888383940       10.7827107422       12.0344465562
O                32.0209124704       11.5598362850       12.8650390884
C                31.9096731583        8.3203622694       12.3963667344
H                29.7587368720        8.2278565974       11.1184212142
H                30.4999063574        9.5993453069       13.4301222186
H                32.7255833326        8.5359070384       13.0788910426
H                31.4206273083        7.4004407843       12.7049038025
H                32.3163940658        8.1939667431       11.3965142133
N                31.7226946643       10.9709559379       10.7141390854
C                32.2939629288       12.1906756515       10.1716934747
C                31.4871073092       13.3950332600       10.6581929506
O                31.9854292756       14.3835923281       11.1747329355
C                32.2735504429       12.1249009956        8.6461028138
C                32.9103991452       13.3417544213        7.9812555239
C                34.4696175349       13.3817027241        8.1234949298
O                34.9481411863       13.2142390435        9.2603400246
O                35.1066297413       13.5953367121        7.0726608421
H                31.2901500365       10.3225853513       10.0742865387
H                33.3256808082       12.3099595801       10.5214037253
H                32.8121686908       11.2316637843        8.3216797412
H                31.2320498127       12.0407108240        8.3268835968
H                32.6875256097       13.3416760647        6.9129418528
H                32.5159907870       14.2620451189        8.4174793823
N                30.1674244224       13.2830567857       10.4493079006
C                29.2699404564       14.3470966179       10.8547636597
C                29.6009559387       14.7912821349       12.2870992183
O                29.7867184821       15.9735433122       12.5587601171
C                27.8131100569       13.9088934160       10.7444084391
C                26.8435682965       15.0728449265       10.9076567448
C                26.8752488738       15.7410927597       12.3251430130
O                27.1436856331       15.0097992111       13.2939443016
O                26.5768744412       16.9493346187       12.3659976153
H                29.7760860654       12.4331217003       10.0636122346
H                29.4388965352       15.2165345891       10.2011683159
H                27.6573406086       13.4427468819        9.7663021736
H                27.6238544544       13.1628626396       11.5178636128
H                27.0122643577       15.8485094881       10.1577904938
H                25.8188657802       14.7125903593       10.7765741794
N                29.7444188760       13.8036357940       13.1709719486
C                29.8135301416       14.0481168035       14.6060499592
C                30.8218597604       15.1549294163       14.9074780235
O                30.5931663125       16.0513543102       15.7181656236
C                30.1676303226       12.7164057680       15.2846092091
C                30.2544204110       12.7056405802       16.8207301272
C                31.5291187695       13.3846676519       17.3314877468
C                28.9997408449       13.3176106336       17.4506283541
H                29.5063497618       12.8661622614       12.8749633438
H                28.8291242745       14.4073843126       14.9359660123
H                29.3998143755       12.0008624771       14.9733138389
H                31.1123981280       12.3743582305       14.8577837709
H                30.3036336785       11.6461217086       17.0973431815
H                31.7337529610       13.0732229405       18.3517279523
H                32.3809643161       13.0949050849       16.7214977251
H                31.4261146023       14.4629797163       17.2597699712
H                28.9523326433       13.1345868553       18.5211360497
H                28.9718619287       14.3876772550       17.2629462753
H                28.1061368560       12.8855337465       17.0033975022
N                32.0120769700       15.0290428930       14.3141823310
C                33.0651113944       16.0113342269       14.5160566486
C                32.5807865487       17.4451342990       14.2729529567
O                32.8306552144       18.3615874736       15.0464346975
C                34.2476502253       15.6946428892       13.5927662705
C                35.2414502305       16.8628863689       13.4674615170
C                36.7005662456       16.4055437148       13.3993135631
C                37.2294324949       16.0534221268       14.7877695647
N                38.6451639921       15.5969514700       14.7103680284
H                32.1227430646       14.3424126623       13.5806695822
H                33.3691180497       15.9626781052       15.5689910971
H                34.7341265968       14.7985047511       13.9757903177
H                33.8496864764       15.4325132748       12.6099646286
H                35.0053302985       17.4230354955       12.5634469504
H                35.1215808706       17.5473514817       14.3072007427
H                36.7664400193       15.5516795235       12.7237216341
H                37.2933151579       17.2165722837       12.9761578542
H                37.1780464896       16.9316176208       15.4328740525
H                36.6272159667       15.2601360823       15.2292039664
H                39.0009798607       15.3417442698       15.6429366350
H                38.7191255997       14.7762126576       14.0910335946
H                39.2369857922       16.3456084124       14.3199165194
N                31.9736759051       17.6245496240       13.1006679444
C                31.4548944837       18.9191330982       12.7124122724
C                30.5451216001       19.5003143474       13.7997019204
O                30.6549215604       20.6476057879       14.2068544930
C                30.6996893117       18.8002087991       11.3885724430
C                31.6100461706       18.4202479962       10.2155542087
C                32.5484821765       19.5360679302        9.7437180721
C                31.8457057568       20.8001262584        9.2573126020
N                30.9713522500       20.5235356215        8.0808689362
H                31.6331496594       16.8117965565       12.6049967779
H                32.2979559600       19.6121618536       12.6154971612
H                29.9399058942       18.0254065121       11.5095234567
H                30.1798741887       19.7397753901       11.2048137150
H                32.2098492681       17.5529312156       10.4993227358
H                30.9812992854       18.0734691868        9.3938954909
H                33.2117389613       19.8220397007       10.5577514009
H                33.1817635630       19.1331706539        8.9521503319
H                31.2331717928       21.2356666354       10.0472764766
H                32.6005847992       21.5268549468        8.9579355145
H                30.5872947220       21.4015404222        7.7036258630
H                31.5069634706       20.0424941611        7.3426737436
H                30.1840875351       19.9201174547        8.3548387917
N                29.6284871799       18.6490304797       14.2719686274
C                28.6219393893       19.1070660194       15.2089941279
C                29.2931853160       19.8294208317       16.3827621608
O                28.8668850940       20.8887071288       16.8258510761
C                27.7590863480       17.9270644500       15.6620682692
C                26.5659026178       18.3968015292       16.4383445273
C                25.4812419806       18.9363444932       15.7566474176
C                26.5078365292       18.3115149539       17.8217556298
C                24.3594180805       19.3629281629       16.4390100684
C                25.3858549696       18.7435281216       18.5056049546
C                24.3071644149       19.2678566174       17.8189754155
H                29.5628298139       17.7135051427       13.8932860068
H                27.9767534833       19.8572551510       14.7291755203
H                27.4112953990       17.4038175630       14.7651442928
H                28.3736067946       17.2353723019       16.2376820011
H                25.5221423517       18.9968302496       14.6785635227
H                27.3447208745       17.8974033643       18.3581236440
H                23.5224550685       19.7666563627       15.8902595925
H                25.3380471915       18.6672859612       19.5804540863
H                23.4308180960       19.5952677136       18.3561729624
N                30.3590547189       19.2058564218       16.8881263766
C                31.1179690096       19.7607541898       17.9937984920
C                31.5193497284       21.2147095862       17.7381759688
O                31.2854974820       22.1114354257       18.5370225884
C                32.3904036451       18.9403476795       18.2034069851
C                32.1112643892       17.5377461213       18.7372642670
C                31.5134467494       17.5839182408       20.1449225178
C                31.7258270916       16.2814318881       20.8933243556
N                30.8724220461       15.1815441997       20.3684251550
H                30.6756534514       18.3317304249       16.4887135865
H                30.4956143363       19.7755996668       18.8941765745
H                32.9126652127       18.8764444152       17.2494769167
H                33.0296529045       19.4643689828       18.9129886772
H                31.4509477990       17.0028088006       18.0539691314
H                33.0591737604       17.0002473445       18.7734674550
H                32.0126217305       18.3624949415       20.7213512517
H                30.4530799470       17.8295523147       20.1064383455
H                32.7684789628       15.9702129809       20.8352306782
H                31.5062110698       16.3753408444       21.9539746694
H                31.1195657908       14.3463558447       20.9272917198
H                29.8790481994       15.4002368111       20.5191292699
H                31.0313916459       15.0010383778       19.3660190164
N                32.2366971751       21.4088621518       16.6277263559
C                32.7298824861       22.7404216657       16.3440764795
C                31.6033289068       23.7676108952       16.4174297238
O                31.7409276872       24.8579432626       16.9560984204
C                33.4106765600       22.8052542339       14.9732066176
C                34.9309010275       22.5973262959       15.0514556747
C                35.5086774358       22.2793175880       13.6722769974
C                35.6084583528       23.8423991353       15.6254071255
H                32.2933309951       20.6908551071       15.9173391478
H                33.4275628039       23.0138649744       17.1441137047
H                32.9403017719       22.0511936839       14.3402723544
H                33.2122650074       23.7800404053       14.5263739841
H                35.1300986353       21.7485957691       15.7122336106
H                36.5879606461       22.1713306767       13.7416332242
H                35.0948784121       21.3545722972       13.2802762514
H                35.2936608634       23.0800851224       12.9698038987
H                36.6840858458       23.7019413333       15.6953207037
H                35.4182764067       24.7029944772       14.9879563989
H                35.2371769414       24.0804580534       16.6193978218
N                30.4861406966       23.4249078840       15.7576650319
C                29.4434745606       24.4054888916       15.5800069730
C                28.6956900846       24.7426856687       16.8721785982
O                28.2268350893       25.8765273534       17.0322184641
C                28.4997941428       23.9844007445       14.4457193471
C                27.7491956912       25.1741442107       13.8459491010
C                28.7063955896       26.1551202596       13.1701651045
C                27.9843137774       27.4036540479       12.6812750518
N                28.9623431533       28.5193866597       12.5599850723
H                30.3485859796       22.4871710916       15.4055994974
H                29.9529990761       25.3403566777       15.3145984582
H                29.0909041046       23.5003172022       13.6655875515
H                27.8003807715       23.2419798833       14.8315638766
H                27.0215654371       24.8161409137       13.1162216422
H                27.1929794626       25.6843776037       14.6329435414
H                29.4523811893       26.4699384685       13.8976727924
H                29.2023764604       25.6486136807       12.3442565718
H                27.5045875405       27.2215115601       11.7209918914
H                27.2160037229       27.6980619199       13.3956585910
H                28.4939221418       29.3763926414       12.2390345504
H                29.3701367315       28.6904255811       13.4974564262
H                29.7087301225       28.2646339770       11.8969532987
N                28.6202879337       23.7992416732       17.8033511114
C                27.9105743955       23.9873963137       19.0689808647
C                28.2817860237       25.3477553598       19.6765735510
O                27.4451042646       26.1941276298       19.9666829390
C                28.2507762267       22.8083973298       19.9947876220
C                27.4538166262       22.6640128508       21.3090346054
C                27.8360642079       23.7061083674       22.3613623270
C                25.9444202337       22.6816901122       21.0687119717
H                29.0107834848       22.8811284652       17.6162824357
H                26.8326688714       24.0236666559       18.8664130974
H                28.1007831941       21.8981174873       19.4082481707
H                29.3144036735       22.8636571056       20.2277900629
H                27.7219743192       21.6781495560       21.7055658021
H                27.3004034989       23.5209609349       23.2901323237
H                28.9023412994       23.6768453440       22.5688347618
H                27.5675865510       24.7038272297       22.0277669635
H                25.3973812891       22.4184985644       21.9720565017
H                25.6248464039       23.6779925856       20.7741038694
H                25.6653732823       21.9760285012       20.2886789232
N                29.5910153853       25.5442358427       19.8808074851
C                30.0947108227       26.7517039219       20.5192666294
C                29.5351288360       28.0348293097       19.8959189461
O                29.3294425168       29.0260922110       20.5791171922
C                31.6362945136       26.7301853949       20.4954776245
C                32.3416444256       28.0965329937       20.6180823593
C                33.6871505825       27.9203543618       21.3254367329
C                32.5807758679       28.7198822618       19.2402567485
H                30.2469332055       24.8177795624       19.6279621372
H                29.7359692334       26.7698375985       21.5573977356
H                31.9602898361       26.0835976041       21.3126318927
H                31.9461473083       26.2661717357       19.5585059630
H                31.7168309613       28.7783438221       21.2019890738
H                34.2060181347       28.8742537444       21.3737764240
H                33.5531412645       27.5462304263       22.3360604834
H                34.2978878536       27.2184394233       20.7652465361
H                33.1649767672       29.6333184398       19.3258034452
H                33.1195641130       28.0274984893       18.5978325532
H                31.6480541399       28.9790290181       18.7509987007
N                29.4003767779       28.0308272175       18.5569871488
C                29.0144091391       29.2247762354       17.8451264605
C                27.5135695847       29.5404513428       17.8013585795
O                27.1345441798       30.5410534186       17.2007716982
C                29.5492684114       29.2178028230       16.4072102361
O                29.0481999232       28.1788325330       15.5984707285
H                29.3762201816       27.1482315233       18.0627460755
H                29.4675154033       30.0747004612       18.3746274220
H                29.2427225683       30.1676004891       15.9554296416
H                30.6464430373       29.1736791137       16.4236999025
H                28.6963040607       27.4493170273       16.1434950907
N                26.6626604187       28.6813281139       18.3626297859
C                25.2420485455       28.9667505851       18.2789514285
C                24.8562679701       30.0766056537       19.2612213870
O                25.3354147967       30.1393623337       20.3890241196
C                24.4371414103       27.6754999644       18.5136045042
C                24.4172656839       27.2563248492       19.9789335905
C                23.0058822315       27.8303429598       18.0059895100
H                26.9568060791       27.9333365160       18.9790234662
H                25.0639298736       29.3219398392       17.2587596794
H                24.9463183864       26.9012965145       17.9286541674
H                23.8877080586       26.3125100146       20.0784616243
H                25.4191807886       27.1361681686       20.3778264796
H                23.9004296906       28.0046001783       20.5717352066
H                22.4811293949       26.8806338331       18.0780399050
H                22.4757993680       28.5514881431       18.6237027978
H                22.9821102892       28.1547224884       16.9684034247
N                23.9458815126       30.9748081687       18.8564846746
C                23.4160096497       31.9096883223       19.8432847980
C                22.7635908131       31.1157413010       20.9760714874
O                22.0875156000       30.1204428699       20.7577900243
C                22.3979377427       32.7527203902       19.0658841588
C                22.9357656629       32.6975537164       17.6377904156
C                23.4328881397       31.2567993510       17.5278695937
H                24.2352901090       32.5191467197       20.2407504244
H                21.4148079578       32.2824261692       19.1168114314
H                22.3183517350       33.7631629010       19.4589406767
H                22.1801367165       32.9315874772       16.8923096371
H                23.7721260575       33.3865964016       17.5214341779
H                22.6044398074       30.5828465325       17.2913802039
H                24.2257137990       31.1504199870       16.7876972280
N                29.0065055783       11.0616676005       21.2558136525
C                27.5672978822       11.2909469656       21.1599941954
C                26.8935197572       11.0764083243       22.5200432412
O                26.0762515583       11.8631934743       22.9820674201
C                26.9348607002       10.3819451033       20.1123282291
H                29.4636602592       10.5045348997       20.5468987826
H                27.3903324276       12.3387556785       20.8860325589
H                25.8715395004       10.5849259942       20.0177016299
H                27.3979289005       10.5464969693       19.1435588362
H                27.0405783438        9.3300731723       20.3657861136
N                27.7527073290       13.6167119690       25.1480599375
C                26.9916495368       14.7678608648       24.7174734399
C                25.5214719592       14.6703915012       25.0904493248
O                24.8833569599       15.7008139205       25.1975062110
C                27.1426613536       14.9693336562       23.2059296515
C                26.4077845237       16.1981538089       22.6443605880
C                26.9714048554       17.5160620129       23.1754834931
C                26.4788823395       16.1755286394       21.1185404640
H                28.1377935035       13.0089694655       24.4367136085
H                27.3629935922       15.6534549028       25.2468208764
H                28.2122667181       15.0375228343       23.0027279607
H                26.7583916911       14.0688752771       22.7245811205
H                25.3564141610       16.1330604326       22.9346436805
H                26.4573452755       18.3468255152       22.6991266879
H                26.8116089702       17.5978318380       24.2459601038
H                28.0337718686       17.5928357067       22.9658380924
H                25.8686581249       16.9768347314       20.7156080998
H                27.5020952583       16.3149871686       20.7836313260
H                26.1017119583       15.2388347677       20.7152167720
N                20.7338056686       23.6870113792       15.9310495105
C                22.0566908275       23.3259437628       15.4595783122
C                21.9406557982       22.3460817413       14.2926931195
O                22.6903570436       22.3569125912       13.3177119280
C                22.9142876144       22.6921278214       16.5678657834
C                24.3813397541       22.6648192387       16.1351715667
C                22.7781457192       23.4474325770       17.8890612436
H                20.4543288661       23.4453493864       16.8725278315
H                22.5467911258       24.2337348419       15.0823458953
H                22.5529625612       21.6690184880       16.7052287093
H                24.9609679038       22.0711957593       16.8363976432
H                24.5012288437       22.2337676993       15.1443489005
H                24.7899571754       23.6725432213       16.1086708341
H                23.5082867291       23.0638300161       18.5963303127
H                22.9667027883       24.5060971736       17.7326372971
H                21.7941073656       23.3296536625       18.3371342105
N                20.9844007398       21.4262417073       14.4429994391
C                20.7964910535       20.3944906707       13.4492426352
C                20.3528051778       20.9693686722       12.1020436684
O                20.9567312956       20.6689711875       11.0732594129
C                19.7632452213       19.3684072871       13.9029408129
C                20.1342974264       18.5529119361       15.1498568432
C                18.9760335776       17.6031213715       15.4547415591
C                21.4109892478       17.7352837752       14.9667174191
H                20.3776477627       21.4261110061       15.2547098993
H                21.7664145882       19.9153856112       13.2612151947
H                18.8391855627       19.9150970733       14.0944381639
H                19.5986064961       18.6796138377       13.0739958175
H                20.2633188148       19.2355604412       15.9939687382
H                19.1931958438       17.0188108635       16.3436218632
H                18.0468771906       18.1450279100       15.6139704055
H                18.8316677223       16.9148462100       14.6257663492
H                21.6637806715       17.2266849722       15.8938833206
H                21.2731036811       16.9819055603       14.1949239812
H                22.2595932980       18.3551563647       14.6951154649
N                20.6477724101       23.7573818129       10.9019323314
C                21.5650539221       24.7560374570       10.4048309257
C                22.8126251534       24.1278933477        9.7857954299
O                23.3552304654       24.6094178659        8.8046117593
C                21.9637248067       25.7115682364       11.5172814637
C                22.5439648497       27.0435581556       10.9275939730
O                21.8320372388       27.6417734732       10.1016694794
O                23.6544580516       27.3963069857       11.3636175452
H                20.6683084178       23.5562490426       11.8924515211
H                21.0712790145       25.3210165795        9.6027997988
H                21.0793516781       25.9610241989       12.1068592407
H                22.7060391018       25.2498541622       12.1679495569
N                23.2641835234       23.0144240612       10.3973851004
C                24.4679332531       22.3523952821        9.9505529430
C                24.2625276018       20.8717925659        9.6261519153
O                24.8049453149       20.3332748620        8.6750281156
C                25.6141902224       22.4476024367       10.9736901707
C                26.9129480498       21.9773295345       10.3234895855
S                28.1404251549       21.3290172009       11.4960296573
C                27.3701456801       19.7319638040       11.8055994523
H                22.8245343907       22.7168429196       11.2575226982
H                24.7652003291       22.8670957866        9.0302015768
H                25.6986839880       23.4833088200       11.3049827830
H                25.3429037687       21.8448864693       11.8441453635
H                26.7179887642       21.1645737714        9.6235575613
H                27.3869436703       22.7972970196        9.7927686113
H                27.9679615602       19.1687854852       12.5084254222
H                26.3779638811       19.8737937625       12.2224906095
H                27.2889754194       19.1697597592       10.8800353517
N                23.5389423752       20.1847992449       10.5232535820
C                23.2598400573       18.7828013113       10.3116677740
C                22.5546799442       18.5022345847        8.9738659990
O                22.8318923597       17.5265524300        8.2978308448
H                23.0243492253       20.6833965088       11.2338465490
H                24.1995331124       18.2225249791       10.3301759724
H                22.6183679371       18.4234615612       11.1157862840
N                21.5634395374       19.3644113908        8.7184203547
C                20.8295875122       19.4642303424        7.4679286990
C                20.2485948086       18.1010434756        7.0494279583
O                20.3846200327       17.6454488053        5.9307668685
C                21.6757043005       20.0137821329        6.3125181160
C                22.3245262850       21.3764029379        6.5651793820
C                23.2348452096       21.7112593244        5.3859199542
C                21.2967650206       22.4895447000        6.7340403970
H                21.4496774198       20.1161042608        9.3884301676
H                19.9924855487       20.1444733436        7.6547700263
H                22.4528501684       19.2819623216        6.0837242810
H                21.0339014479       20.0834459442        5.4335795877
H                22.9364659227       21.3177772324        7.4695462215
H                23.7280733540       22.6660952119        5.5503256134
H                23.9973544378       20.9480570999        5.2524676006
H                22.6429772261       21.7782526052        4.4763091569
H                21.7951181311       23.4378609303        6.9290333049
H                20.7025086221       22.5988258737        5.8305354069
H                20.6250215524       22.3118168916        7.5675364723
N                19.5099540325       17.4840739098        7.9946987783
C                18.9989204649       16.1504797290        7.7851418088
C                17.5038819591       16.0957946281        8.0560200739
O                16.9777487266       16.6908026981        8.9859942240
C                19.6644763354       15.1492061348        8.7416941475
C                21.1335591287       14.9181026697        8.4001378040
C                21.8191822809       14.1588629940        9.5241369635
O                21.3873584151       13.1107250399        9.9797440740
N                22.9266751760       14.7577793263        9.9878899673
H                19.4638438157       17.8532642207        8.9319954096
H                19.2113097029       15.8931771004        6.7440223577
H                19.5888223483       15.5540306204        9.7531439894
H                19.1370933817       14.1956346785        8.7195188564
H                21.2131771548       14.3334690306        7.4833219192
H                21.6414568929       15.8667627342        8.2412871256
H                23.2586859270       15.6225519603        9.5911492598
H                23.4449990520       14.3475645521       10.7502673921
H                21.4081193534       12.4017699255       17.4297539788
H                22.6456655153        9.3671626668       16.2532847904
H                22.4355629641       10.5007910480       11.9141701763
H                22.8847752373       31.4069242494       21.9250324065
H                29.4385299398       11.8509079907       21.2344932961
H                27.1162603262       10.2691459833       23.0665907247
H                28.4614105003       13.8888102462       25.6314876391
H                25.1021566447       13.7751486729       25.2411641063
H                20.6357727506       24.5809447054       15.8953738135
H                19.5704727742       21.5905821299       12.0567683960
H                19.8024258557       24.0133358498       10.7290834554
H                16.9073800495       15.5567822619        7.4613343241
