142
Properties=species:S:1:pos:R:3 pbc="F F F"
N      55.03800000      51.29600000      48.07000000 
C      55.60900000      52.09000000      47.01700000 
C      56.35400000      53.22400000      47.66100000 
O      55.91400000      53.76500000      48.68600000 
C      54.49500000      52.61300000      46.09500000 
C      54.03100000      51.44400000      45.23200000 
C      54.91800000      53.81900000      45.27400000 
C      53.07100000      51.81400000      44.11600000 
H      54.62300000      51.80500000      48.81600000 
H      56.28600000      51.47900000      46.45300000 
H      53.68300000      52.92000000      46.74100000 
H      54.90500000      50.97800000      44.79900000 
H      53.57500000      50.70200000      45.87300000 
H      54.08600000      54.16900000      44.68100000 
H      55.23100000      54.63300000      45.90700000 
H      55.73200000      53.57400000      44.60400000 
H      52.70600000      50.92300000      43.62300000 
H      52.21900000      52.36300000      44.49100000 
H      53.56100000      52.42400000      43.36900000 
N      57.53300000      65.09800000      46.29600000 
C      56.13400000      64.78700000      46.20000000 
C      55.69300000      63.99100000      47.42500000 
O      56.45600000      63.90700000      48.39900000 
C      55.96000000      64.11800000      44.85000000 
C      56.22000000      65.08300000      43.70400000 
C      56.40800000      64.28500000      42.42700000 
C      55.03700000      66.02800000      43.57600000 
H      58.14300000      64.49700000      45.80100000 
H      55.57400000      65.70600000      46.23300000 
H      56.62200000      63.26500000      44.80200000 
H      54.96700000      63.75700000      44.71000000 
H      57.11600000      65.65500000      43.89700000 
H      56.48200000      64.93600000      41.56400000 
H      57.30400000      63.68300000      42.48000000 
H      55.56400000      63.62200000      42.28200000 
H      55.12800000      66.65600000      42.70100000 
H      54.12500000      65.44900000      43.48700000 
H      54.94100000      66.66800000      44.44000000 
N      54.45500000      63.48700000      47.48800000 
C      53.96400000      62.88800000      48.70400000 
C      54.35100000      61.43500000      48.75100000 
O      55.08100000      60.90900000      47.89600000 
C      52.45500000      62.99200000      48.52700000 
C      52.32400000      62.55000000      47.08200000 
C      53.52400000      63.19000000      46.39400000 
H      54.34400000      63.39200000      49.57300000 
H      51.90900000      62.37300000      49.21700000 
H      52.15200000      64.02100000      48.65200000 
H      52.40500000      61.47600000      47.03900000 
H      51.39300000      62.82800000      46.61700000 
H      53.97000000      62.49800000      45.70400000 
H      53.25000000      64.09200000      45.87500000 
N      53.80300000      60.76700000      49.75800000 
C      54.14500000      59.41400000      50.07900000 
C      52.88500000      58.71600000      50.52200000 
O      52.06300000      59.27900000      51.25900000 
C      55.24200000      59.39300000      51.13500000 
C      54.98200000      60.20400000      52.38900000 
O      54.37000000      61.31000000      52.29100000 
O      55.46000000      59.74300000      53.45900000 
H      53.43100000      61.27600000      50.52600000 
H      54.51300000      58.94000000      49.18600000 
H      55.47900000      58.38400000      51.41500000 
H      56.11900000      59.81900000      50.66200000 
N      52.70900000      57.47800000      50.07400000 
C      51.51500000      56.71600000      50.34800000 
C      51.83000000      55.27500000      50.04500000 
O      52.89700000      54.96100000      49.49800000 
C      50.32700000      57.25900000      49.55800000 
C      50.59100000      57.39100000      48.07100000 
C      50.44800000      58.79400000      47.51400000 
O      50.29500000      59.76400000      48.30600000 
O      50.51700000      58.89800000      46.25200000 
H      53.40000000      57.03600000      49.52100000 
H      51.28700000      56.78500000      51.39900000 
H      49.46300000      56.63900000      49.75200000 
H      50.12200000      58.23900000      49.95100000 
H      51.60000000      57.08100000      47.83500000 
H      49.94000000      56.75600000      47.49000000 
N      50.93300000      54.36000000      50.42000000 
C      51.21200000      52.94500000      50.33800000 
C      49.93400000      52.22200000      50.04000000 
O      48.85200000      52.81700000      50.15100000 
C      51.82900000      52.41200000      51.63800000 
C      50.83300000      52.13400000      52.72800000 
C      50.07100000      53.13800000      53.30600000 
C      50.65200000      50.83400000      53.16400000 
C      49.15000000      52.84300000      54.29600000 
C      49.74500000      50.53500000      54.15900000 
C      48.99300000      51.54200000      54.73000000 
H      50.04800000      54.62600000      50.76900000 
H      51.91200000      52.79100000      49.53500000 
H      52.35500000      51.49800000      51.41000000 
H      52.56500000      53.13400000      51.95800000 
H      50.18100000      54.14400000      52.98200000 
H      51.23000000      50.05100000      52.72200000 
H      48.55400000      53.62600000      54.71700000 
H      49.63100000      49.52400000      54.48800000 
H      48.29200000      51.31800000      55.50600000 
N      45.14700000      55.96100000      52.81800000 
C      46.11800000      57.02700000      52.83800000 
C      46.83700000      57.07300000      54.16000000 
O      48.07300000      57.05500000      54.22600000 
C      45.42400000      58.34300000      52.54200000 
C      46.39100000      59.47200000      52.39600000 
C      47.22600000      59.53700000      51.29000000 
C      46.46500000      60.47600000      53.34400000 
C      48.09700000      60.58400000      51.11500000 
C      47.33900000      61.53800000      53.18300000 
C      48.13900000      61.59100000      52.06400000 
O      49.00100000      62.63800000      51.83600000 
H      44.18700000      56.18200000      52.93000000 
H      46.86300000      56.82500000      52.09500000 
H      44.86900000      58.20500000      51.62900000 
H      44.71000000      58.56000000      53.31900000 
H      47.18100000      58.75800000      50.55400000 
H      45.83800000      60.43400000      54.20600000 
H      48.73600000      60.63400000      50.25800000 
H      47.38900000      62.31800000      53.91500000 
H      48.92800000      63.34200000      52.46900000 
N      54.10700000      55.54200000      56.63000000 
C      54.91700000      54.45900000      56.13300000 
C      55.59600000      53.75300000      57.28100000 
O      56.27000000      54.38700000      58.10600000 
C      55.94700000      55.00500000      55.15300000 
C      55.25100000      55.37000000      53.88000000 
O      55.03400000      54.50100000      53.01400000 
N      54.84100000      56.62400000      53.74700000 
H      54.51900000      56.44300000      56.69300000 
H      54.27000000      53.76700000      55.62200000 
H      56.45900000      55.84700000      55.59300000 
H      56.66700000      54.23500000      54.93100000 
H      54.33600000      56.88900000      52.93200000 
H      55.07000000      57.34200000      54.38500000 
H      54.39033034      50.77017301      47.73231675 
H      57.21217776      53.54837858      47.26311878 
H      57.67964874      65.92536891      45.97357972 
H      49.95651046      51.26428051      49.75317835 
H      45.18831003      55.53177736      52.02802443 
H      46.31502944      57.11929760      55.01170609 
H      53.39033124      55.65050174      56.09650842 
H      55.50499823      52.76237436      57.38287997 
