 350 
 
N                39.2805494240       25.1491718305       30.2418685065
C                39.2419597207       24.0470953818       29.3151760303
C                38.3971577694       24.4468394488       28.1090925305
O                38.6367630485       23.9761328038       27.0024795796
C                38.6717403100       22.7662213462       29.9343779773
O                39.4969205947       22.1989664896       30.9081393990
H                38.9363810151       25.0133734014       31.1868569542
H                40.2568154617       23.8359264868       28.9476098536
H                37.6733507628       22.9934070093       30.3291608493
H                38.5897186561       22.0300800536       29.1310400946
H                39.5256281241       22.7981754593       31.6734231397
N                40.8650490925       26.7111713878       26.1715938960
C                41.8570288112       25.9568867080       25.4322123966
C                41.1484821129       25.0582724674       24.4309562667
O                41.5304966185       24.9945692301       23.2717734379
C                42.8299967933       25.1005096322       26.2657076566
O                42.1822576257       24.0229876317       26.8973411338
C                43.6328360441       25.9543348033       27.2349231114
H                40.5729155237       26.3968581479       27.0944234956
H                42.4583407511       26.6510291921       24.8417258543
H                43.5149240803       24.6453990326       25.5455383900
H                41.3886104799       24.3533385473       27.3339977469
H                44.2865161990       25.3188036532       27.8262749910
H                44.2381786950       26.6596162357       26.6740700922
H                42.9596333326       26.4798533858       27.9003259550
N                42.0335711855       25.6390635800       20.7444781064
C                42.1878051726       24.4622776815       19.9239145199
C                41.1067778251       24.2862476378       18.8527217075
O                41.3855925296       23.8295998392       17.7473747808
C                42.0910560246       23.2476968507       20.8551427840
C                43.1230375717       23.2257499091       21.9357940382
C                42.7946902512       22.6272232320       23.1447278021
C                44.3298815911       23.8854074082       21.8219062984
C                43.6320280261       22.7137383010       24.2396491543
C                45.1545125188       23.9947895660       22.9239774536
C                44.8245413697       23.4057405978       24.1284512932
H                41.6932175218       25.4687775067       21.6849133062
H                43.1419050427       24.5025894367       19.3824676076
H                41.1222174374       23.2951877948       21.3511430749
H                42.1269503021       22.3323725921       20.2745119202
H                41.8475798337       22.1159338806       23.2249264476
H                44.6086758908       24.3590049247       20.8930525337
H                43.3259978393       22.2943697188       25.1848261576
H                46.0271545108       24.5990562643       22.8329219900
H                45.4853880872       23.4893152398       24.9765127677
N                50.7043964559       22.5752837880       27.2307087816
C                49.8263289969       22.3808423439       26.1078290707
C                49.7133560696       23.7646996360       25.4934505165
O                50.0472266834       23.9041146147       24.3243192988
C                48.5024091372       21.6872146194       26.4249398325
C                48.7453242442       20.2868208035       27.0030435290
C                47.6970412930       21.5929578043       25.1343140624
C                47.4688112751       19.6833743486       27.5785710894
H                50.3068113577       22.5072282844       28.1597823221
H                50.3557979669       21.7847678429       25.3498131052
H                47.9507797933       22.2885669986       27.1524911629
H                49.1557202155       19.6448591924       26.2215912232
H                49.4809958497       20.3566711094       27.7999701832
H                46.7410924956       21.1182792363       25.3253995917
H                47.5080849580       22.5719834817       24.7097000283
H                48.2515835857       21.0193362837       24.3938337555
H                47.6811831089       18.7843910460       28.1509036092
H                47.0021325471       20.3962037100       28.2540855705
H                46.7650699878       19.4288924468       26.7922957147
N                50.7575126953       24.0379879683       21.8175611309
C                49.6359443908       24.3870489549       20.9677342827
C                49.7756127342       25.7718857010       20.3525622711
O                49.2484567362       25.9818911674       19.2611612615
C                48.2368157147       24.3279732330       21.6103114203
C                48.0386354489       22.9088149800       22.1275670239
C                48.1159592039       25.4628545701       22.6238285979
H                50.6329731284       24.1358821950       22.8209541347
H                49.5854110228       23.6749793095       20.1442277330
H                47.5369308644       24.5206896469       20.7879507310
H                47.0697540086       22.7278167705       22.5794720077
H                48.1179598751       22.2295626828       21.2838098054
H                48.8220520980       22.6991030493       22.8451954726
H                47.5017923553       25.1907018466       23.4751810572
H                49.1084379733       25.7037259338       22.9689171081
H                47.7131996563       26.3534814329       22.1463743093
N                42.5475579824       18.7607105838       13.8282535304
C                41.9953381573       17.5417840812       14.3940566958
C                43.0668448063       16.7786433245       15.1816692560
O                42.7912867563       16.3306091601       16.2914054638
C                41.4059700632       16.6491829272       13.3201908622
C                40.5964050327       15.4843454429       13.9953837480
O                39.6092034079       15.8348991708       14.6673641789
O                41.0026882905       14.3267083020       13.7866630540
H                42.3821381025       18.9247779007       12.8472788554
H                41.2101262527       17.7882373590       15.1304800634
H                40.7024447162       17.2135736786       12.7038024556
H                42.2008835732       16.2234802619       12.7104237345
N                44.2896793276       16.6614303729       14.6476612033
C                45.3279296496       15.8743936837       15.2881949045
C                45.6760530090       16.4562942895       16.6444438239
O                45.7386071901       15.7462976741       17.6523500407
C                46.6175953656       15.8845204048       14.4541979508
C                46.4091947518       15.2354491000       13.1268363675
N                45.3206153868       14.4473043318       12.8912320887
C                47.1906658590       15.2780923823       12.0015862514
C                45.4377751712       14.0217138356       11.6653986642
N                46.5562566055       14.4979199736       11.0740135867
H                44.4350053434       16.7998339491       13.6558111735
H                44.9718694024       14.8456161056       15.4410262093
H                46.9652771314       16.9121451023       14.3294410296
H                47.3967539446       15.3515195890       15.0086224999
H                48.1239624376       15.7524939015       11.7854706937
H                44.7207194706       13.3952130524       11.1749924616
H                46.9198233886       14.2490865582       10.1672353730
N                46.0271359446       17.7375904039       16.6392579894
C                46.4188200349       18.3550688567       17.8836289774
C                45.2243110866       18.3472740967       18.8282332357
O                45.4195094996       18.2862925896       20.0395439685
C                47.0350251677       19.7705507046       17.7394112993
C                45.8765897639       20.7414125940       17.4873576191
C                48.1437581269       19.7424646187       16.6921192597
C                46.1541896497       22.2296803746       17.3435638749
H                45.8432145128       18.3023394153       15.8136100833
H                47.1622929583       17.6952892720       18.3541797538
H                47.4846396758       20.0226431993       18.7071528050
H                45.3120624429       20.3844860058       16.6277215665
H                45.2415538908       20.6573260198       18.3686179501
H                48.5771219014       20.7264939953       16.5594179676
H                48.9402272733       19.0768148123       17.0176738630
H                47.7536643576       19.3869448110       15.7465304900
H                45.2089285437       22.7370053039       17.1634338858
H                46.5543359844       22.6117602954       18.2767013780
H                46.8269716570       22.4606898508       16.5276626660
N                44.0036828263       18.4189544509       18.3008615048
C                42.8438348895       18.4736183453       19.1507889529
C                42.5019306297       17.1266195747       19.7554622552
O                41.9323181320       17.0693269103       20.8433848371
C                41.5359185939       18.8629282105       18.4578261836
C                41.5529337070       20.1653798359       17.6549203695
C                40.1613545563       20.7786724397       17.6506155486
C                42.5862263170       21.1387923231       18.1931412347
H                43.8570793496       18.4740000616       17.3001651451
H                43.0546883439       19.1613342807       19.9800210399
H                41.2329950421       18.0280512448       17.8204078300
H                40.7993086233       18.9454593728       19.2604036884
H                41.8316970590       19.9184060562       16.6346810560
H                40.1325983234       21.6734743198       17.0360660312
H                39.4336450747       20.0582982433       17.2856970430
H                39.8900899023       21.0664691710       18.6574667491
H                42.3117954797       22.1528171236       17.9333809437
H                42.6928191916       21.0391154980       19.2664932735
H                43.5399264966       20.9034639320       17.7584628667
N                42.7737457756       16.0904828099       18.9791566477
C                42.5526340635       14.7105245490       19.3498419243
C                43.6203901090       14.4162047202       20.3904057579
O                43.3499404032       13.9923536659       21.5077839613
C                42.6649860144       13.8145607110       18.1183951991
C                41.3668653900       13.6075006400       17.3017255908
C                40.9745357544       12.1319352186       17.3417352782
C                40.1807872778       14.4635715252       17.7357469190
H                43.0117237538       16.2563808276       18.0068145570
H                41.5795313827       14.5831095652       19.8354899217
H                43.4263169581       14.2462602427       17.4695979972
H                43.0139897459       12.8287216034       18.4237772302
H                41.5783738496       13.8812219446       16.2631713818
H                40.0957440848       11.9637685758       16.7257780863
H                41.7835893546       11.5161638088       16.9568179277
H                40.7484265793       11.8239259212       18.3611600934
H                39.4011976958       14.3764976342       16.9825323284
H                39.7701206055       14.1412171463       18.6904543090
H                40.4538962560       15.5140079579       17.7875530795
N                44.8680702567       14.7019284397       20.0351933193
C                45.9103108269       14.5477395861       21.0249391039
C                45.5308747850       15.3769491626       22.2640663818
O                45.5807467227       14.8593980756       23.3722141811
C                47.2796350694       14.8709892227       20.4491984075
S                47.7720738857       13.6719760337       19.1537726098
H                45.0698775690       15.1251979666       19.1353364737
H                45.9038035129       13.5071433648       21.3843528695
H                47.2969640404       15.8549868735       19.9885099226
H                48.0428192232       14.8087070527       21.2238816496
H                46.9220879897       14.1170434257       18.2331794669
N                45.1241530148       16.6293141184       22.0830899982
C                44.8323865464       17.4624852554       23.2340837970
C                43.6874834132       16.8570256480       24.0376887453
O                43.8183622096       16.6141576033       25.2305377994
C                44.4651763755       18.8997826587       22.8378229251
C                43.6928129541       19.5654285815       23.9656073979
C                45.7013535094       19.7413123171       22.5445469033
H                45.1281752088       17.1052430190       21.1842088335
H                45.7088306297       17.4650994874       23.8984795369
H                43.8277574473       18.8512759833       21.9516262685
H                43.4301885111       20.5686450531       23.6647919961
H                42.7799390833       19.0331537427       24.2112648629
H                44.3178231863       19.6251354810       24.8502764164
H                45.3994270326       20.7479774030       22.2654159193
H                46.3120040543       19.8035955306       23.4385315676
H                46.2845302735       19.3128636702       21.7393776989
N                42.5468039323       16.6761835431       23.3788681412
C                41.3349735208       16.2322554340       24.0330197522
C                41.5747770160       14.8787134550       24.6675536512
O                41.1752811167       14.6431211165       25.8086492769
C                40.1840182666       16.1566047963       23.0234516093
C                38.8315833491       15.8002477395       23.5920853291
C                37.9856350457       14.9680785688       22.8630648268
C                38.3661114750       16.3135947224       24.7973524537
C                36.7155250275       14.6642399238       23.3196627825
C                37.1030840979       15.9920192172       25.2679120345
C                36.2719308414       15.1694091420       24.5292799220
H                42.4517767849       16.9281687235       22.4000006902
H                41.0942739352       16.9253489637       24.8526159687
H                40.1185068570       17.1257008288       22.5208474046
H                40.4573927810       15.4251315237       22.2603120723
H                38.3171888211       14.5493896734       21.9228262471
H                38.9930892197       16.9513273184       25.4021981871
H                36.0725388608       14.0309757023       22.7258730995
H                36.7767625128       16.3771179805       26.2222066071
H                35.2902166337       14.9127737337       24.8957382679
N                42.2186266384       13.9732898583       23.9467956113
C                42.5731300457       12.6998623480       24.5336317255
C                43.4359996474       12.9322397110       25.7769252278
O                43.1492948817       12.3814129381       26.8375066024
C                43.3106473508       11.8092692631       23.5351181704
C                42.3796172524       11.2758137482       22.4551630536
S                43.1693393408       10.0037732408       21.4158449303
C                44.2611394441       11.0348466782       20.3997960092
H                42.5624514616       14.1641596269       23.0109458534
H                41.6552764467       12.2052178955       24.8856757854
H                44.1093459265       12.3934594824       23.0783466566
H                43.7534872530       10.9679867887       24.0706709777
H                41.5257528667       10.7690271058       22.9016837925
H                42.0345999368       12.0733305620       21.7984860960
H                44.6548191146       10.4093161112       19.6067155298
H                43.6719381421       11.8437097224       19.9815249781
H                45.0699755316       11.4259772153       21.0080904914
N                44.4969875621       13.7232108370       25.6457864592
C                45.3686184418       13.9213891149       26.7822693398
C                44.6733416234       14.6401541280       27.9374740569
O                44.9428046707       14.2918660643       29.0839132614
C                46.6422695892       14.6987444209       26.4483496723
C                47.5801155511       14.0148839964       25.4458237507
C                48.6902482978       14.9934092389       25.0681673239
C                48.1774549141       12.7238260026       25.9947379073
H                44.7439385311       14.1900608235       24.7781483953
H                45.6317012334       12.9313825511       27.1828139546
H                46.3414259933       15.6695803893       26.0523533599
H                47.1790616941       14.8544534788       27.3876388553
H                47.0078978282       13.7892821775       24.5453353001
H                49.3313111081       14.5638589178       24.3026351564
H                48.2582820321       15.9111511103       24.6772620175
H                49.2954489401       15.2298229270       25.9395869740
H                48.8540974876       12.2885866934       25.2637145696
H                48.7363048469       12.9144053745       26.9080726649
H                47.4016816656       11.9939437083       26.2096838158
N                43.8502197111       15.6522721706       27.6865079827
C                43.1775433471       16.3513424912       28.7658673162
C                42.0761615572       15.4607013908       29.3378168305
O                41.8520031064       15.3981272922       30.5438254273
C                42.6256726374       17.7239615320       28.3323344998
C                43.7783260517       18.6485782022       27.9211655386
C                41.8284305153       18.3395404696       29.4817062455
C                43.2990570068       19.9891789647       27.3751290250
H                43.6827860762       15.9548991609       26.7325268966
H                43.8964965673       16.5042847427       29.5832799953
H                41.9694529681       17.5654538537       27.4689808632
H                44.4190269963       18.8192368266       28.7874777374
H                44.3638560185       18.1426879412       27.1528940960
H                41.3924366392       19.2889650519       29.1885891808
H                41.0241534723       17.6837608682       29.8027896858
H                42.4826927168       18.5066256128       30.3338686314
H                44.1397723667       20.5542655331       26.9811011355
H                42.5837647555       19.8286422241       26.5734830283
H                42.8269023380       20.5920790790       28.1438143343
N                41.3719063766       14.7486933662       28.4581362667
C                40.4497595409       13.7580024142       28.9599728647
C                41.1858649701       12.7829369621       29.8782951699
O                40.6244933090       12.3931596586       30.8962554125
C                39.7690234041       12.8834153031       27.9145225172
S                38.4884688964       13.7505231422       26.9599754606
H                41.5674921321       14.7873536759       27.4641919289
H                39.6787954896       14.2598653489       29.5661593707
H                40.4856646243       12.5070299357       27.1880237067
H                39.2786665484       12.0573491676       28.4320757789
H                39.4046594156       14.4212403465       26.2727389984
N                42.3814860368       12.3374801905       29.4967799737
C                43.0856339918       11.3487385030       30.2996062202
C                43.6729096791       12.0167606104       31.5379634184
O                43.3762420236       11.5990474396       32.6534466978
C                44.1601806262       10.5958713558       29.5006395279
C                43.4825433111        9.6705314614       28.4844587429
C                45.0518820127        9.8052683588       30.4570786012
C                44.4535896759        9.1282558245       27.4441649561
H                42.7687126007       12.5503713327       28.5799209132
H                42.3579489733       10.6233934292       30.6909178070
H                44.7691529211       11.3306458318       28.9668981241
H                43.0106055689        8.8436582156       29.0182235376
H                42.7061497942       10.2342829546       27.9673663983
H                45.8307947941        9.2799007376       29.9138060615
H                45.5320488047       10.4616138757       31.1776758191
H                44.4583189974        9.0748493219       31.0017776684
H                43.9269159598        8.5067066536       26.7246088152
H                44.9160546324        9.9545111761       26.9100055246
H                45.2338030507        8.5278889959       27.9026241764
N                44.4990421301       13.0372344649       31.3699875785
C                45.0765546862       13.7150912104       32.5142936814
C                43.9617008131       14.1297092769       33.4704841801
O                44.0714929335       13.9762853324       34.6862980486
C                45.8894073558       14.9335016736       32.0467915773
C                47.0969853406       14.5315477412       31.1874506482
C                46.3256639349       15.7919260161       33.2284290085
C                48.0807729525       13.5712515426       31.8410747288
H                44.7125503006       13.4070507452       30.4500506631
H                45.7132928784       13.0134017451       33.0717338860
H                45.2243963136       15.5291863781       31.4126906664
H                46.7364586810       14.0770972204       30.2672988419
H                47.6235341526       15.4502463297       30.9218612606
H                46.9252930075       16.6253080938       32.8704825056
H                45.4689339293       16.1924737664       33.7633773569
H                46.9172304916       15.2033273984       33.9224372928
H                48.8832252724       13.3583518716       31.1401210841
H                48.5205542638       13.9951569637       32.7388357109
H                47.5996958456       12.6307850275       32.0947557890
N                42.8861303289       14.6649025326       32.8989882474
C                41.6860503691       15.0228984688       33.6154680304
C                41.0478852080       13.8087134695       34.2780455723
O                40.7091645480       13.8696054096       35.4553589199
H                42.8289033919       14.8257774051       31.8994511800
H                41.9016051972       15.7495433088       34.4078744003
H                40.9884852406       15.4662218015       32.9037832991
N                40.9136503216       12.7030194884       33.5503282287
C                40.3415472000       11.4987069191       34.1182927496
C                41.2171878574       10.9747288069       35.2532777329
O                40.7015418049       10.4044067309       36.2087115354
C                40.0775015118       10.3987824567       33.0565575100
O                38.7687575360        9.9070129247       33.2814683272
C                41.1153442778        9.2788137053       33.0848098605
H                41.0959895273       12.6951283892       32.5520151645
H                39.3645199685       11.7270797353       34.5674251686
H                40.1066204941       10.8869043688       32.0779193516
H                38.5988169769        9.1924506064       32.6535762891
H                40.9377306738        8.5739494691       32.2751901820
H                42.1001752041        9.7151371261       32.9632799039
H                41.0716608270        8.7450803620       34.0312279295
H                40.1317108417       25.4207002770       30.3504804013
H                37.6440654623       25.0955026274       28.2190382340
H                41.1664607155       27.5475831409       26.3114738902
H                40.3617822123       24.5120391318       24.7185886874
H                42.8289216028       26.0512721704       20.8310909902
H                40.1609619511       24.5443741178       19.0497066121
H                51.3595491222       21.9585585525       27.2100940356
H                49.3741552553       24.5290471450       26.0418260203
H                50.9753099510       23.1744119297       21.6879433044
H                50.2860437773       26.4839792887       20.8346233383
H                42.2012479891       19.4736224107       14.2546642662
H                42.2090387830       11.0967965494       35.2167920166
