315
Properties=species:S:1:pos:R:3 pbc="F F F"
N      23.15600000      15.15400000      53.47100000 
C      22.41900000      16.01100000      54.36100000 
C      23.13400000      15.96000000      55.67300000 
O      23.60000000      14.87700000      56.07100000 
C      20.98900000      15.50900000      54.48400000 
C      20.04200000      16.55700000      55.05200000 
C      19.17400000      16.00800000      56.16400000 
C      18.17000000      17.04500000      56.58800000 
N      17.41900000      16.56700000      57.78600000 
H      23.43100000      14.26900000      53.82200000 
H      22.43100000      17.00500000      53.95900000 
H      20.67100000      15.21300000      53.49600000 
H      20.99400000      14.61800000      55.09400000 
H      20.60100000      17.40000000      55.43300000 
H      19.41200000      16.93900000      54.26000000 
H      18.66000000      15.11500000      55.83300000 
H      19.79800000      15.73000000      57.00300000 
H      18.64800000      17.96600000      56.85800000 
H      17.44900000      17.23700000      55.81600000 
H      16.73900000      17.24400000      58.08600000 
H      16.93900000      15.70800000      57.58700000 
H      18.04600000      16.39500000      58.55500000 
N      23.25300000      17.08700000      56.35800000 
C      24.05800000      17.11100000      57.55700000 
C      23.45800000      18.16400000      58.43200000 
O      23.43500000      19.36100000      58.09300000 
C      25.54900000      17.32000000      57.25400000 
C      26.26100000      17.82900000      58.50100000 
C      25.77100000      18.20800000      56.04300000 
C      27.77300000      17.81800000      58.38900000 
H      22.92200000      17.95600000      55.98500000 
H      23.94600000      16.15800000      58.04000000 
H      25.94300000      16.33800000      57.02400000 
H      25.92200000      18.83200000      58.70900000 
H      25.96200000      17.21500000      59.34200000 
H      26.82600000      18.37100000      55.88400000 
H      25.37400000      17.74800000      55.15200000 
H      25.29000000      19.16000000      56.17400000 
H      28.22800000      18.10900000      59.32500000 
H      28.13300000      16.82800000      58.13400000 
H      28.11500000      18.50400000      57.62900000 
N      22.91000000      17.74200000      59.56400000 
C      22.19100000      18.61900000      60.43200000 
C      22.71000000      18.49300000      61.83300000 
O      23.35400000      17.50000000      62.19800000 
C      20.70500000      18.34400000      60.35800000 
O      20.51100000      17.04300000      60.92400000 
C      20.20900000      18.37900000      58.93800000 
H      22.97200000      16.78900000      59.82600000 
H      22.35900000      19.62200000      60.09200000 
H      20.19400000      19.07900000      60.95900000 
H      19.62100000      16.72500000      60.80900000 
H      19.13200000      18.42000000      58.93800000 
H      20.58400000      19.23800000      58.40800000 
H      20.54000000      17.49500000      58.41500000 
N      22.45500000      19.52500000      62.62900000 
C      23.05900000      19.59500000      63.94400000 
C      22.27800000      20.58500000      64.77800000 
O      22.46400000      21.80600000      64.69200000 
C      24.51500000      19.99000000      63.80900000 
H      22.02900000      20.35700000      62.26200000 
H      22.98300000      18.62100000      64.39100000 
H      25.00800000      20.02300000      64.76900000 
H      25.00900000      19.25400000      63.19100000 
H      24.58800000      20.95300000      63.33400000 
N      21.38400000      20.05400000      65.60300000 
C      20.53300000      20.79600000      66.50100000 
C      20.87400000      20.38300000      67.90600000 
O      21.07200000      19.17700000      68.15000000 
C      19.07600000      20.42400000      66.18000000 
C      18.13600000      20.47900000      67.32100000 
N      17.57500000      21.65800000      67.80800000 
C      17.69000000      19.44300000      68.07700000 
C      16.81600000      21.32600000      68.82800000 
N      16.85700000      19.98800000      69.02800000 
H      21.32200000      19.06700000      65.67200000 
H      20.71100000      21.84400000      66.36600000 
H      18.74000000      21.06300000      65.37900000 
H      19.08800000      19.41300000      65.80700000 
H      17.89100000      18.40400000      68.02600000 
H      16.23700000      21.98400000      69.42400000 
H      16.36800000      19.48700000      69.73300000 
N      20.06500000      25.88700000      69.83600000 
C      20.64500000      26.24900000      68.56600000 
C      20.33000000      25.19400000      67.55500000 
O      20.44200000      23.98500000      67.82000000 
C      22.15300000      26.37000000      68.70100000 
C      22.55500000      27.44300000      69.69100000 
C      24.07400000      27.57100000      69.79900000 
C      24.61900000      28.86700000      69.21600000 
N      25.65400000      29.44200000      70.13000000 
H      20.22300000      24.95200000      70.16400000 
H      20.22000000      27.18300000      68.25900000 
H      22.54000000      25.41600000      69.02500000 
H      22.57500000      26.58900000      67.72900000 
H      22.11500000      28.38500000      69.39500000 
H      22.14400000      27.20300000      70.66000000 
H      24.36600000      27.51200000      70.83800000 
H      24.54000000      26.73300000      69.30500000 
H      25.09400000      28.72200000      68.26300000 
H      23.85500000      29.61300000      69.11600000 
H      26.05200000      30.28300000      69.74600000 
H      25.24300000      29.67500000      71.02000000 
H      26.39800000      28.79200000      70.29400000 
N      19.96700000      25.64100000      66.36600000 
C      19.51100000      24.73100000      65.35000000 
C      20.26000000      25.02200000      64.08200000 
O      20.12500000      26.13200000      63.53600000 
C      18.01600000      24.90500000      65.12900000 
C      17.37500000      23.58400000      64.73400000 
C      15.98900000      23.80900000      64.23700000 
O      15.68100000      23.62300000      63.05000000 
N      15.11600000      24.26100000      65.13600000 
H      19.81600000      26.61900000      66.21400000 
H      19.71900000      23.73700000      65.69200000 
H      17.58600000      25.26200000      66.04900000 
H      17.85100000      25.66100000      64.37900000 
H      17.94100000      23.11000000      63.95000000 
H      17.36500000      22.93600000      65.59700000 
H      15.36200000      24.38700000      66.08300000 
H      14.18700000      24.47700000      64.85600000 
N      21.03600000      24.06700000      63.60200000 
C      21.78200000      24.21600000      62.37700000 
C      21.38400000      23.12700000      61.42900000 
O      21.30800000      21.94400000      61.82300000 
C      23.28500000      24.15300000      62.67400000 
C      23.64800000      25.39200000      63.50300000 
C      24.08800000      24.01200000      61.39300000 
C      25.09300000      25.84100000      63.37500000 
H      21.21100000      23.23000000      64.11900000 
H      21.54200000      25.17200000      61.94600000 
H      23.44600000      23.27200000      63.27100000 
H      23.00800000      26.20800000      63.20800000 
H      23.42300000      25.18900000      64.54200000 
H      25.14400000      24.00000000      61.61100000 
H      23.84800000      23.08300000      60.89600000 
H      23.88800000      24.82600000      60.71000000 
H      25.29300000      26.66800000      64.04100000 
H      25.78200000      25.04400000      63.61200000 
H      25.29800000      26.17300000      62.36700000 
N      21.17100000      23.43900000      60.15800000 
C      20.99500000      22.35500000      59.22000000 
C      21.52500000      22.72900000      57.86700000 
O      21.36000000      23.87200000      57.40300000 
C      19.54500000      21.86500000      59.15300000 
C      18.73500000      22.41800000      57.99400000 
C      17.39100000      21.77400000      57.88300000 
O      16.91500000      21.47500000      56.77400000 
N      16.72700000      21.53900000      59.01200000 
H      21.09300000      24.39000000      59.85000000 
H      21.58700000      21.54400000      59.59600000 
H      19.54900000      20.79700000      59.07800000 
H      19.09900000      22.11700000      60.09900000 
H      18.60600000      23.48900000      58.08200000 
H      19.23400000      22.22700000      57.06400000 
H      17.08000000      21.79300000      59.90100000 
H      15.83300000      21.11000000      58.97300000 
N      22.12500000      21.74500000      57.21500000 
C      22.68300000      21.89200000      55.89200000 
C      22.16400000      20.80300000      54.99100000 
O      22.11900000      19.61400000      55.36700000 
C      24.21100000      21.81600000      55.96800000 
C      24.72700000      23.01500000      56.74900000 
C      24.82000000      21.71200000      54.58000000 
C      26.24000000      23.15300000      56.71100000 
H      22.35100000      20.88800000      57.68100000 
H      22.38600000      22.84600000      55.50800000 
H      24.44400000      20.92200000      56.52000000 
H      24.27200000      23.91000000      56.35600000 
H      24.39900000      22.92200000      57.77400000 
H      25.89400000      21.65100000      54.64300000 
H      24.47400000      20.82500000      54.06800000 
H      24.55800000      22.57100000      53.98000000 
H      26.57800000      23.89500000      57.42100000 
H      26.71600000      22.21100000      56.95100000 
H      26.57500000      23.45500000      55.72900000 
N      21.80900000      21.18200000      53.77400000 
C      21.28500000      20.25600000      52.80400000 
C      22.01700000      20.46500000      51.50200000 
O      22.13000000      21.60600000      51.01400000 
C      19.78500000      20.46300000      52.61900000 
C      19.22100000      19.41500000      51.68000000 
C      19.08100000      20.40000000      53.96300000 
H      21.74900000      22.15100000      53.54500000 
H      21.46300000      19.26200000      53.17000000 
H      19.64700000      21.44600000      52.19800000 
H      18.14700000      19.50300000      51.63200000 
H      19.61100000      19.51700000      50.67600000 
H      19.46400000      18.42700000      52.04400000 
H      18.02600000      20.60900000      53.83600000 
H      19.18200000      19.41400000      54.39100000 
H      19.48300000      21.11700000      54.65900000 
N      20.57700000      25.99000000      53.36300000 
C      21.23400000      26.04300000      54.65200000 
C      20.47600000      26.98900000      55.53600000 
O      20.04300000      28.06000000      55.06100000 
C      22.67300000      26.51800000      54.45100000 
C      23.51200000      26.50100000      55.73000000 
C      23.89100000      27.88000000      56.27700000 
C      25.35500000      28.21200000      56.08700000 
N      25.71100000      28.25500000      54.63200000 
H      20.30900000      26.86400000      52.95300000 
H      21.23600000      25.05900000      55.07800000 
H      23.10100000      25.86400000      53.70900000 
H      22.64000000      27.50800000      54.02100000 
H      22.97600000      25.95200000      56.48600000 
H      24.41200000      25.93400000      55.55300000 
H      23.29100000      28.64900000      55.81000000 
H      23.69800000      27.93200000      57.33800000 
H      25.59700000      29.17900000      56.49100000 
H      25.98500000      27.47000000      56.53500000 
H      26.67200000      28.53200000      54.50500000 
H      25.59800000      27.35200000      54.20300000 
H      25.13400000      28.91200000      54.14200000 
N      20.31200000      26.67700000      56.81200000 
C      19.62800000      27.62000000      57.66500000 
C      20.06200000      27.41500000      59.07900000 
O      20.55700000      26.33200000      59.45400000 
C      18.10300000      27.52100000      57.50800000 
C      17.39100000      26.50800000      58.41100000 
C      16.74200000      27.21600000      59.59500000 
C      16.33100000      25.75200000      57.62900000 
H      20.63500000      25.80900000      57.18600000 
H      19.91900000      28.60700000      57.36000000 
H      17.69000000      28.49700000      57.67100000 
H      17.93600000      27.26800000      56.47600000 
H      18.11000000      25.79300000      58.78100000 
H      16.25700000      26.50700000      60.25500000 
H      17.45600000      27.78200000      60.16800000 
H      15.99000000      27.90500000      59.23000000 
H      15.77000000      25.09200000      58.27800000 
H      15.63800000      26.44700000      57.17300000 
H      16.77900000      25.15700000      56.84200000 
N      19.84800000      28.42300000      59.90900000 
C      20.06700000      28.22700000      61.31600000 
C      19.21700000      29.17400000      62.10300000 
O      18.81300000      30.24500000      61.61500000 
C      21.53000000      28.39500000      61.70300000 
C      22.00300000      29.83500000      61.65400000 
C      23.49600000      29.89300000      61.86200000 
O      23.92400000      30.46800000      62.90500000 
O      24.21800000      29.34100000      60.99000000 
H      19.44800000      29.27700000      59.57800000 
H      19.77800000      27.22400000      61.56100000 
H      21.66500000      27.99400000      62.69400000 
H      22.11500000      27.80100000      61.02400000 
H      21.76500000      30.26100000      60.68900000 
H      21.51900000      30.41800000      62.41700000 
N      18.99800000      28.78700000      63.35100000 
C      18.18800000      29.51900000      64.28200000 
C      18.80900000      29.38500000      65.64400000 
O      19.31700000      28.29800000      65.98200000 
C      16.78300000      28.94200000      64.31800000 
O      16.23700000      29.22900000      63.02300000 
C      15.92300000      29.53000000      65.40700000 
H      19.34800000      27.89400000      63.64000000 
H      18.12800000      30.54500000      63.98800000 
H      16.86200000      27.87200000      64.43700000 
H      15.32500000      28.96700000      62.95100000 
H      14.90300000      29.20200000      65.28100000 
H      16.26200000      29.21100000      66.38000000 
H      15.95500000      30.60700000      65.36200000 
N      17.32700000      33.94000000      63.19100000 
C      16.90500000      33.01900000      62.16500000 
C      17.48600000      33.47200000      60.85100000 
O      17.43100000      34.67700000      60.54600000 
C      15.38800000      33.01900000      62.04100000 
O      14.88900000      32.68300000      63.33700000 
C      14.90400000      32.02400000      61.01400000 
H      17.36300000      34.90300000      62.94300000 
H      17.24500000      32.03400000      62.41600000 
H      15.07300000      34.02000000      61.78600000 
H      13.94800000      32.80600000      63.40200000 
H      13.82400000      32.00300000      61.00900000 
H      15.24400000      32.28600000      60.02400000 
H      15.27100000      31.04200000      61.26300000 
N      17.99800000      32.54200000      60.06300000 
C      18.60000000      32.85200000      58.78500000 
C      18.45100000      31.65900000      57.88900000 
O      18.61900000      30.51500000      58.34700000 
C      20.09000000      33.14200000      58.99600000 
C      20.95800000      33.02300000      57.75300000 
C      22.41300000      33.14700000      58.12700000 
O      23.14500000      32.12100000      57.98700000 
O      22.80700000      34.26400000      58.57100000 
H      18.14600000      31.61700000      60.42100000 
H      18.09800000      33.70200000      58.35900000 
H      20.17700000      34.13000000      59.41600000 
H      20.43500000      32.43600000      59.73700000 
H      20.81700000      32.06200000      57.28700000 
H      20.70300000      33.79400000      57.04000000 
N      18.21100000      31.89100000      56.60600000 
C      18.21700000      30.85500000      55.60900000 
C      18.86200000      31.42800000      54.38800000 
O      18.73100000      32.63500000      54.10500000 
C      16.79300000      30.37000000      55.31000000 
C      15.92700000      31.48300000      54.74900000 
C      16.77500000      29.16200000      54.38600000 
H      18.11600000      32.82500000      56.28000000 
H      18.79900000      30.02600000      55.96700000 
H      16.40300000      30.07400000      56.27300000 
H      14.89100000      31.17500000      54.72500000 
H      16.00300000      32.38100000      55.34300000 
H      16.22800000      31.72300000      53.73800000 
H      15.78700000      28.72600000      54.37400000 
H      17.02700000      29.44400000      53.37400000 
H      17.48000000      28.41000000      54.70500000 
H      22.65883392      14.97997611      52.74124554 
H      20.93893941      21.07198339      68.62786201 
H      20.39153082      26.42473866      70.47959518 
H      22.41696613      19.68402308      51.02231038 
H      21.12270016      25.59908068      52.76350569 
H      18.81241275      30.16415793      66.27081838 
H      16.76244422      33.89016724      63.89013766 
H      19.40578402      30.84146041      53.78777484 
