 380 
 
N               114.3919203350       66.1700536668      159.0643943288
C               113.6773119804       65.4483749775      158.0402083389
C               113.5089393169       63.9729642893      158.4223856300
O               113.7519572626       63.5446732422      159.5429885966
H               113.8572065716       66.7680868623      159.6866395683
H               112.7032171754       65.9118974113      157.8668540725
H               114.2433760777       65.4880766306      157.1036051765
N               113.0648176644       63.2219746782      157.4136551048
C               112.9722889698       61.7779678827      157.4739581250
C               114.2222747067       61.1835943229      158.1447698695
O               115.3495283520       61.6035396547      157.9643144030
C               112.8012706129       61.1821649767      156.0672275342
C               114.0465411572       61.2047820814      155.1683196151
C               113.7605805561       60.4238420767      153.8852211193
C               114.4984143970       62.6251866357      154.8356696687
H               112.7000365640       63.6833445335      156.5843047037
H               112.0903525594       61.5077123429      158.0724634172
H               112.4929616868       60.1424563963      156.1914117938
H               111.9999613208       61.7339373329      155.5708968299
H               114.8740914491       60.7121856712      155.6877144760
H               114.6308296166       60.4700190875      153.2340651124
H               113.5503477818       59.3840470596      154.1159322402
H               112.9159883442       60.8552001494      153.3523030160
H               115.2730463863       62.6124110271      154.0693300478
H               113.6733129123       63.2315972765      154.4629591392
H               114.9192714274       63.1110850680      155.7122232607
N               108.7600643812       57.1270758420      159.9922587142
C               108.4084668671       57.5640817225      158.6496983628
C               109.0062507578       56.6625553354      157.5705797134
O               108.4504836389       56.4517410801      156.5051187035
C               108.9454489685       58.9787585441      158.4343437957
H               109.2264300615       57.8087568512      160.5780536487
H               107.3201024996       57.5312618459      158.5280428228
H               108.6771105570       59.3326817333      157.4431005328
H               108.5219355981       59.6519774320      159.1725500247
H               110.0294012360       58.9825386220      158.5271755776
N               110.2523408182       56.2511278689      157.8494519246
C               111.0830459515       55.5484960419      156.8959439047
C               111.5889683973       54.2166327194      157.4734728707
O               112.7676115314       53.9238769318      157.5641867844
C               112.2360629026       56.4144876448      156.3611794283
C               112.0444025422       56.7929246693      154.8920930650
C               110.9093103137       57.8064421954      154.6987479583
C               110.3664780078       57.8617961084      153.2756080102
N               109.4435083382       56.7153825286      153.0372601521
H               110.6336275439       56.4841771075      158.7562910803
H               110.4127403134       55.2729610351      156.0707615593
H               112.3303404099       57.3064620486      156.9812236014
H               113.1560978853       55.8369624406      156.4645062869
H               112.9816094322       57.2119000269      154.5265705996
H               111.8739911006       55.8726692502      154.3293809406
H               110.0854597960       57.5706128235      155.3710189366
H               111.2723924125       58.7966694737      154.9675992295
H               109.8067137595       58.7867235850      153.1269658785
H               111.1752463580       57.8139061831      152.5459694286
H               108.9797210255       56.7987658147      152.1232149130
H               109.9656061610       55.8294184473      153.0591203688
H               108.7308972768       56.6844297848      153.7853832870
N               115.3632494338       54.3282338894      150.7885225621
C               115.9094814753       55.6686057978      150.8174797690
C               117.4372765002       55.6660753631      150.8178338445
O               118.0444101126       56.5910146197      150.2812855735
C               115.3266339466       56.5342082477      151.9311086853
C               113.9118254407       57.0082458919      151.5720111520
C               113.9125496518       57.7534001280      150.2449042463
O               113.5728987839       57.2268402591      149.1958426729
N               114.3067210983       59.0322157281      150.3204287038
H               114.9224955960       53.9397032537      151.6105343357
H               115.6485819673       56.1260206913      149.8528760268
H               115.3014627290       55.9635700958      152.8607981435
H               115.9849058259       57.3945406497      152.0637281626
H               113.2609354894       56.1393929864      151.4739622319
H               113.5477532440       57.6701815594      152.3551678372
H               114.6428544262       59.4416055698      151.1749551966
H               114.4049208173       59.5724085355      149.4761254078
N               117.8931129701       55.9783829102      147.3145252728
C               117.6703446809       57.3520468558      146.8931652982
C               118.9451912910       58.1785586930      147.1239731148
O               119.3955624816       58.9344535739      146.2702026980
C               116.5208052176       57.9812992231      147.6661028685
H               117.1653050630       55.4920393575      147.8267090294
H               117.4663478287       57.3711214627      145.8128406320
H               116.3550808096       58.9940585054      147.3085896021
H               115.6082515850       57.4040669484      147.5321164633
H               116.7700257795       58.0228890361      148.7240000020
N               121.6305037772       57.5485927266      144.8400340512
C               121.3731059938       58.2355566501      143.5927666489
C               121.8560243033       59.6813665554      143.6742245634
O               122.4265891655       60.2042500269      142.7179291258
C               119.8896035158       58.2218538015      143.2385155384
C               119.3143595417       56.8744850530      142.8822846466
C               117.9285346608       56.7450179402      142.8670865916
C               120.0877267476       55.7804028345      142.5205386203
C               117.3260859085       55.5607583276      142.4864676247
C               119.4839400256       54.5924732013      142.1401939738
C               118.1057983202       54.4780584485      142.1152758789
H               120.8430077145       57.1537200642      145.3427360010
H               121.9670600507       57.7638556951      142.7992111706
H               119.3364285285       58.6410825150      144.0821563229
H               119.7498377371       58.8892197203      142.3817734799
H               117.3167080932       57.5914808884      143.1470188465
H               121.1641513354       55.8428068864      142.5173792237
H               116.2487574008       55.4832421033      142.4767289008
H               120.1003805977       53.7539699339      141.8526474637
H               117.6403789267       53.5529056463      141.8108256262
N               121.6394225536       60.3268885069      144.8197672584
C               122.1488787467       61.6756134064      144.9869890582
C               123.6781530278       61.6513405255      144.8931887834
O               124.3055496094       62.5026470855      144.2711588061
C               121.6885870368       62.2621209790      146.3311016620
O               120.2787747598       62.1602730457      146.3546693076
C               122.1442899685       63.7146347434      146.4678557617
H               120.9704088033       59.9747895771      145.4989011753
H               121.7806369915       62.3078386893      144.1684385933
H               122.1212158454       61.6430845941      147.1303325093
H               119.9639687672       62.5257162421      147.1900213208
H               121.9222188513       64.0881230261      147.4632106223
H               123.2102790298       63.7944317032      146.2820969656
H               121.6277828115       64.3256533683      145.7327991150
N               124.5912534334       61.5300248397      141.4987447504
C               124.5254194016       62.8539679232      140.9051176459
C               125.8470401215       63.5779929931      141.1681148970
O               126.4643829382       64.1337415771      140.2619169210
C               123.3196869890       63.6552676614      141.4222682678
C               122.0195549898       63.0164795635      140.9140437985
C               123.4415135028       65.1108138520      140.9720956951
C               120.7652492607       63.6850894692      141.4676089224
H               123.8199351315       61.2084177625      142.0782988592
H               124.4547441865       62.7560787461      139.8117536777
H               123.3440707597       63.6140865275      142.5146121283
H               122.0059339538       63.0603518973      139.8224499098
H               122.0074695523       61.9629759459      141.1962896173
H               122.6107005032       65.6991971357      141.3452425250
H               124.3627951244       65.5556191796      141.3385811343
H               123.4534382151       65.1737653639      139.8858759167
H               119.8856725722       63.1172309094      141.1764919519
H               120.8109153493       63.7242817566      142.5517640195
H               120.6552773743       64.6950127981      141.0838279957
N               117.6044321468       63.6005065901      133.5437921526
C               117.4030110053       62.6813283607      134.6415807025
C               117.6166607946       63.3808729666      135.9880851327
O               116.8076733261       63.1908855251      136.8917911849
C               118.2559391719       61.3965295746      134.5178031652
O               119.5646475164       61.6372552464      134.0785087730
C               117.6147333791       60.4258269916      133.5278821574
H               118.2905935760       63.3748268346      132.8247187311
H               116.3479495238       62.3720265201      134.6534779852
H               118.2750427840       60.9343532596      135.5205131132
H               119.9247062391       62.4532664230      134.4678218555
H               118.2469380691       59.5476060983      133.4384019841
H               116.6304360852       60.1238295615      133.8703517760
H               117.5360475899       60.8970235132      132.5517892043
N               118.6976230268       64.1436680676      136.1211939288
C               118.9723157400       64.8620873560      137.3539067536
C               117.7259933931       65.6257957675      137.7826949868
O               117.2445841516       65.5039314254      138.9054094749
C               120.1671691034       65.8152389746      137.1848364185
C               120.2269755739       66.8103828090      138.3430893366
C               121.4682609090       65.0212489050      137.1021933200
H               119.3075476454       64.3370470975      135.3321057573
H               119.1853745270       64.1389230327      138.1538028020
H               120.0153371059       66.3711113333      136.2547338394
H               121.1371691432       67.3998626753      138.2786090486
H               119.3814700106       67.4939278598      138.3190689880
H               120.2191113452       66.2883060181      139.2971002458
H               122.3072503228       65.7000951440      136.9744666787
H               121.6182722711       64.4577841147      138.0194706839
H               121.4499174500       64.3330597444      136.2629867539
N               117.1999125206       66.4255467439      136.8574425910
C               116.0544734483       67.2523832432      137.1797269281
C               114.9820594848       66.3818687525      137.8404059889
O               114.4641313012       66.6613677788      138.9167910980
C               115.5156754483       67.9077229827      135.9108692351
C               116.4535148434       69.0113935908      135.4232235053
O               117.4862209554       69.3144735656      135.9923878278
N               116.0316976032       69.6203746279      134.3042768284
H               117.6624944124       66.5724155813      135.9672782402
H               116.3486865505       68.0298404317      137.8996385818
H               115.4164430560       67.1531408808      135.1276096857
H               114.5353895983       68.3414936613      136.1131242569
H               116.5736336120       70.3830697617      133.9308162032
H               115.1554266399       69.3843959368      133.8709735676
N               114.6215289756       65.3259102999      137.1074701216
C               113.5857749805       64.4191656298      137.5538395618
C               113.8988791135       63.8320570936      138.9388178209
O               113.0253513721       63.7844547493      139.7992546410
C               113.3767886201       63.2948931232      136.5340736202
C               112.4961764057       63.7961303222      135.3909591829
O               111.2796994771       63.6979797197      135.4320892823
N               113.1420509951       64.3578139657      134.3621449654
H               115.1536433506       65.0882936578      136.2782504814
H               112.6502889480       64.9827422128      137.6794931931
H               114.3466255699       62.9478514466      136.1795270977
H               112.8484872522       62.4743044370      137.0214571833
H               112.5955782122       64.7461534195      133.6094477079
H               114.1440168302       64.4975488363      134.3564837437
N               115.1284509482       63.3595562749      139.1018797860
C               115.5434990060       62.7212410319      140.3349213675
C               115.3711164392       63.6673544456      141.5186126061
O               114.8883971992       63.2838167380      142.5778272297
C               117.0087000373       62.2869502385      140.2491209151
C               117.2399289135       61.0711718094      139.3401075712
C               118.7298839617       60.9447946022      139.0250468255
C               116.7374466345       59.7848098419      139.9904858090
H               115.8081162806       63.3909294379      138.3475659165
H               114.8957769717       61.8575703167      140.5292193843
H               117.5815478176       63.1390345281      139.8791518930
H               117.3592845625       62.0483277094      141.2549293905
H               116.7025880250       61.2281964055      138.4001334810
H               118.9137368053       60.0726031365      138.4025166343
H               119.0878279650       61.8227129256      138.4929652422
H               119.3100435998       60.8356889406      139.9386853338
H               116.9089734653       58.9373259774      139.3317185332
H               117.2676904865       59.6006496216      140.9222034379
H               115.6731636248       59.8343388584      140.2029286455
N               115.8202963878       64.9118507684      141.3383146110
C               115.7099169612       65.8594047435      142.4295752171
C               114.2472114158       65.9426397366      142.8634036636
O               113.9109157012       65.8327367257      144.0358756433
C               116.2569840573       67.2718866905      142.0984071772
O               115.4313644382       67.9892878103      141.2200149602
C               117.7034828200       67.2017007996      141.6073150202
H               116.2428842577       65.1876534736      140.4597347733
H               116.2666557651       65.4725863615      143.2931816656
H               116.2159490233       67.8421267360      143.0348285278
H               115.3712759805       67.5327094550      140.3627278435
H               118.0881246051       68.2118145706      141.4957959950
H               118.3217450940       66.6625242806      142.3164708917
H               117.7567524168       66.7055614076      140.6426555927
N               113.3773889759       66.1364712719      141.8680636223
C               111.9692891351       66.3010078328      142.1457518318
C               111.4177754502       65.0707653939      142.8851562265
O               110.6799769533       65.1790965195      143.8552965077
C               111.1942814743       66.5305693300      140.8459424083
O               109.8616382998       66.8320773906      141.1867968936
H               113.6992200563       66.2812692928      140.9192846645
H               111.8175872206       67.1679558450      142.8043981825
H               111.6622371435       67.3659351046      140.3095693939
H               111.2512719516       65.6258089743      140.2268707007
H               109.3679169071       67.0485282076      140.3860480815
N               111.7945566584       63.9070211604      142.3580273774
C               111.3476175447       62.6344892020      142.8920882877
C               111.7234862149       62.5263157276      144.3672564869
O               110.8754888427       62.3348063176      145.2353418545
C               111.9602850015       61.4958398701      142.0888243034
H               112.3667079727       63.8788152003      141.5190476622
H               110.2509288875       62.5914653134      142.8517874550
H               111.6100596598       60.5413433422      142.4697146168
H               111.6713722419       61.5920713906      141.0457388326
H               113.0434509013       61.5348359900      142.1630966412
N               113.0235970518       62.6178220869      144.6590158227
C               113.4139069266       62.4587962612      146.0442632112
C               112.7629885634       63.5416692036      146.9097469165
O               112.3209521842       63.2574155645      148.0199283124
C               114.9217227713       62.3440872310      146.2508367757
C               115.7239879770       63.5974858840      145.9199798080
C               117.1975547893       63.3440823897      146.2708538264
N               117.9938069520       64.5516942365      146.2155773342
C               118.0855869241       65.4538779169      147.1957805569
N               117.6147815359       65.2158619875      148.4039381270
N               118.7518026736       66.5908658909      146.9478758250
H               113.7165157227       62.8517791350      143.9557691343
H               112.9546207673       61.5234951308      146.4013388089
H               115.0842582569       62.1134024521      147.3061807024
H               115.2838841428       61.5097869022      145.6486747604
H               115.6100491500       63.8546033060      144.8672831859
H               115.3541707849       64.4296693855      146.5217662052
H               117.2425799362       62.9328839694      147.2797921317
H               117.6414198419       62.6234347553      145.5834051838
H               118.3431065049       64.8131546971      145.3061383595
H               116.9640293283       64.4354610972      148.6479373647
H               117.6343572291       65.9459172954      149.0962410130
H               119.1978419844       66.7579614229      146.0624459885
H               118.8883575242       67.2658742203      147.6800409368
N               112.6355665868       64.7504709062      146.3612199612
C               111.9546271482       65.8447196123      147.0165142640
C               110.4616481524       65.5982020506      147.2849448506
O               109.8212474230       66.4245075973      147.9271892396
C               112.1239632862       67.0993050204      146.1337391845
O               111.2764779948       68.1680330745      146.4426020414
H               113.0630985279       64.9588105535      145.4630720788
H               112.4001254658       66.0171130171      148.0098141228
H               113.1775443254       67.4074513369      146.1762074558
H               111.8836251982       66.8108256037      145.1079441202
H               111.2529830107       68.3039924885      147.3970313537
N               109.9213048300       64.5016607913      146.7561673573
C               108.5588158815       64.1033950920      147.0100607428
C               108.4434734974       62.9964692334      148.0685716405
O               107.3867426472       62.7974632343      148.6522760234
C               107.9014715026       63.6001772385      145.7098880767
C               106.3826280686       63.8034631802      145.7151901989
C               105.9502669403       65.1044700430      145.0190697252
N               106.7666138986       66.2389682436      145.4032291091
C               107.8096221487       66.7401013682      144.7353930595
N               107.9802899385       66.5106214165      143.4400749296
N               108.5978672283       67.6174618927      145.3583496259
H               110.4515621375       63.8870151105      146.1476333919
H               108.0383702026       64.9728263503      147.4224276645
H               108.3716998897       64.1243238841      144.8766716698
H               108.1437646308       62.5426971567      145.6033781118
H               105.8967350294       62.9761595770      145.2003050017
H               106.0383472892       63.7874428356      146.7494952929
H               105.9984490742       64.9686932278      143.9399279394
H               104.9159914177       65.3280693544      145.2849240721
H               106.6956734535       66.4978630059      146.3776832856
H               107.3751388826       65.8748321162      142.9483033396
H               108.8238743044       66.7944015938      142.9590011685
H               108.6439401452       67.6387736682      146.3670759690
H               109.4326902230       67.9545259456      144.9048230374
N               109.5265659672       62.2223579042      148.1983835322
C               109.6143299772       61.1267341678      149.1378796157
C               110.0746456711       61.6461843196      150.5066249828
O               109.5032163123       61.3579136353      151.5488109894
C               110.5735097469       60.0410302993      148.6144084381
C               110.1480099244       59.5688131505      147.2188360906
C               110.6116066375       58.8887008068      149.6138954364
C               111.2042956269       58.7000473951      146.5435195536
H               110.3924104813       62.5304458481      147.7784498929
H               108.6013133839       60.7288787249      149.2658735485
H               111.5679820727       60.4950540083      148.5438029246
H               109.2105506882       59.0164797733      147.3002252126
H               109.9680081998       60.4428364972      146.5906753688
H               111.3443126439       58.1500943260      149.3071232109
H               110.8773533739       59.2712854088      150.5947995780
H               109.6294910998       58.4272657757      149.6630619875
H               110.8477144176       58.3771766849      145.5691055206
H               112.1213145930       59.2670577937      146.3998036717
H               111.4393020202       57.8202018821      147.1341312127
N               111.2071220610       62.3670030605      150.4544532344
C               111.5832357799       63.2492652072      151.5349211913
C               110.4707183731       64.2775082179      151.7486776849
O               109.8251535298       64.7286799940      150.8095981436
C               112.8282269261       64.0504069580      151.1526471963
C               114.0349855206       63.1972411509      150.7918456283
C               115.0782065490       64.0140196473      149.9895864455
O               115.0522014954       65.2530486678      150.0354282340
O               115.9054704656       63.3401388995      149.3229890112
H               111.5330813008       62.6801561893      149.5489491037
H               111.7369778359       62.6720056588      152.4524078646
H               112.5665406573       64.6685130910      150.2883595036
H               113.0760421854       64.7387593428      151.9643503732
H               114.5234105140       62.8182362721      151.6908426657
H               113.7368086299       62.3525080565      150.1708115127
N               110.2707524170       64.6140345963      153.0247349339
C               109.5056859270       65.7646536755      153.4365863837
C               110.3473956566       67.0339304387      153.2679067911
O               111.5554244073       66.9791946456      153.1180890635
C               109.2113459766       65.6035287618      154.9332141969
C               110.5607299346       65.5419497284      155.7270101180
O               111.2959892853       64.5523671123      155.5006923119
O               110.7921813844       66.4672369472      156.5188296660
H               110.9051873183       64.3030499088      153.7656056182
H               108.5932451361       65.8309660656      152.8321607314
H               108.6215862181       66.4350264568      155.3179545531
H               108.6727540852       64.6682523460      155.0874834859
N               109.6503495527       68.2036394443      153.3259710247
C               110.3228783451       69.3915727069      153.8417585983
C               109.2788950650       70.4581024608      154.1092838583
O               108.3137708038       70.6362206789      153.3752125457
C               111.3779365901       69.9772305320      152.8586077924
O               110.7905622145       70.5911794875      151.7435364985
H               108.6880070046       68.1168379939      153.6359063044
H               110.8482821995       69.1319539737      154.7726819284
H               111.9432597825       70.7548080692      153.3894573374
H               112.0331944771       69.1490369170      152.5578727776
H               110.3142675422       69.9388022754      151.2071594718
H               114.8124685215       65.5864593715      159.6052796413
H               114.1334057577       60.4076601218      158.7692924275
H               108.0139701569       56.8890940316      160.4357765450
H               110.9361698322       53.5334211613      157.8006975646
H               114.7232624421       54.2781909750      150.1577196157
H               117.9359341733       54.9159835152      151.2522331363
H               118.0397985859       55.4624845074      146.5917997591
H               119.4354127110       58.1094538353      147.9928272326
H               122.1822300527       56.8531829414      144.6916987971
H               124.1954989010       60.9260116484      145.3473377319
H               124.6556827727       60.9118038199      140.8478594833
H               126.2262824434       63.6061836081      142.0929827527
H               116.8327974069       63.7025153956      133.0919359455
H               109.3628026671       71.0499770027      154.9109346807
