 474 
 
N                59.5434898607       28.4430045729       37.8906474277
C                58.5621002925       28.1797910247       36.8605974133
C                58.2846550140       29.4267350130       36.0216950260
O                58.2868301985       29.3136882927       34.7969100699
C                57.3068604275       27.4909972585       37.4540484176
O                57.6768023903       26.2693885097       38.0426194029
C                56.3119300266       27.1711581574       36.3453177496
H                59.3523244910       28.0874447588       38.8189470700
H                58.9712308675       27.4557725586       36.1416593906
H                56.8465477797       28.1576296332       38.1972775838
H                58.0667840631       26.4156289300       38.9175899713
H                55.4537719076       26.6604557921       36.7720262965
H                55.9905856333       28.0781395043       35.8475475934
H                56.7824858510       26.5087309836       35.6228029727
N                38.7925433584       26.1116810992       35.7182689647
C                39.4073008806       25.0551751412       34.9554174384
C                38.5182120215       24.5759825741       33.8107583720
O                39.0389467804       24.2307216909       32.7480900605
C                39.7459016003       23.8671219786       35.8443873684
S                41.1271283611       24.2752498356       36.9742208773
H                38.5489287211       25.9134952416       36.6767368219
H                40.3307012236       25.4430758662       34.4984954097
H                38.8822368426       23.5717676425       36.4351489943
H                40.0605926798       23.0308915692       35.2218909868
H                40.3496352164       24.7142524717       37.9548423960
N                38.3169112656       27.4586050632       31.3268815147
C                39.6487402341       27.4841120613       30.7615407438
C                39.8213917623       26.2916749866       29.8366073979
O                40.3968964005       26.3884847123       28.7574275864
C                40.6717999745       27.4110566537       31.8961247089
C                42.0431285370       26.9615229525       31.4917005042
C                42.7641553533       26.1264118032       32.3347046451
C                42.6463631202       27.4186202481       30.3311255641
C                44.0852079635       25.8346073823       32.0661784045
C                43.9789086529       27.1494983464       30.0682069066
C                44.7064894394       26.3858416649       30.9565033688
H                38.2787810102       27.3330373253       32.3333221101
H                39.7808759942       28.3876407538       30.1559053811
H                40.7411381941       28.3947445203       32.3705417652
H                40.2934731334       26.7122129215       32.6387208155
H                42.2956264995       25.7104075859       33.2144641639
H                42.0672387386       27.9956175202       29.6289490975
H                44.6335260930       25.1865388636       32.7282702928
H                44.4441133510       27.5544360717       29.1844951830
H                45.7585435299       26.2254665748       30.7828772236
N                39.2805494240       25.1491718305       30.2418685065
C                39.2419597207       24.0470953818       29.3151760303
C                38.3971577694       24.4468394488       28.1090925305
O                38.6367630485       23.9761328038       27.0024795796
C                38.6717403100       22.7662213462       29.9343779773
O                39.4969205947       22.1989664896       30.9081393990
H                38.9363810151       25.0133734014       31.1868569542
H                40.2568154617       23.8359264868       28.9476098536
H                37.6733507628       22.9934070093       30.3291608493
H                38.5897186561       22.0300800536       29.1310400946
H                39.5256281241       22.7981754593       31.6734231397
N                45.1961015875       30.8773332569       45.6114425479
C                45.4398682362       29.5989180507       46.2451567538
C                46.6150990796       29.5463793476       47.2237673174
O                46.5086008940       28.7522407480       48.1615716881
C                45.5122891844       28.4266855756       45.2394452561
C                46.7491649908       28.4494292530       44.3339412688
C                44.2426421689       28.4085305847       44.3893381247
C                48.0009048777       27.8467697594       44.9590955648
H                45.2153519442       30.9285066059       44.5984899145
H                44.5801427265       29.3841073101       46.8985600641
H                45.5451348323       27.5153267269       45.8459993219
H                46.5201419983       27.8596485456       43.4434829070
H                46.9313959892       29.4739061636       44.0138427999
H                44.2459038756       27.5320985351       43.7471549536
H                43.3513438289       28.3717751456       45.0069755756
H                44.1980446741       29.2956586446       43.7634378574
H                48.8228547016       27.8676717477       44.2477566196
H                48.3231437506       28.3809209611       45.8434156541
H                47.7979076450       26.8179463216       45.2428885495
N                46.2194423543       28.3134448059       50.9088021887
C                46.8200139689       27.0804855187       51.3940657030
C                47.8224828176       27.2674971817       52.5361341757
O                48.0927086217       26.3544197737       53.3007296820
C                47.5267096976       26.3948624381       50.2200286100
O                48.6667351334       27.0914653395       49.7787100591
H                46.3660985166       28.5421077640       49.9272834885
H                46.0510933482       26.4164247667       51.8113969741
H                47.8692712477       25.4024446593       50.5242212010
H                46.8023899031       26.3045286893       49.3986719441
H                48.5230070691       28.0409064096       49.9046746273
N                46.8716108802       22.1705789946       54.6193615926
C                46.3403182688       21.0002825218       53.9524545862
C                47.5510726482       20.2306926355       53.4174760481
O                48.6656010111       20.7280128229       53.3390830294
C                45.3799492015       21.3961477805       52.8090093325
C                44.4699567961       20.2824969786       52.2725838270
C                43.4795733257       19.7812036646       53.3206644258
C                43.7081087685       20.7872910106       51.0467298485
H                47.7859577880       22.4541332532       54.2910317242
H                45.7859713307       20.4159583408       54.6950533764
H                44.7531346851       22.1992766921       53.2021250891
H                45.9808331394       21.8018095476       51.9914622179
H                45.0884461297       19.4477071159       51.9304235380
H                42.8714281753       18.9833337815       52.9021896221
H                43.9763032933       19.3971282034       54.2078874911
H                42.8226733106       20.5915228159       53.6271632753
H                43.0664450825       19.9991853003       50.6598875948
H                43.0832724208       21.6413315925       51.2958409416
H                44.4053817266       21.0865601583       50.2686215261
N                47.2912442409       18.9723908979       53.0491746505
C                48.2951606822       18.0765675943       52.5277499438
C                48.7285706695       18.4812967142       51.1115663251
O                47.9468590576       18.7504263243       50.2163771058
C                47.6954386960       16.6607065379       52.4851485269
C                47.2323445992       16.2185409669       53.8787160010
C                48.7155275619       15.6800757041       51.9211534298
C                46.3640171650       14.9646631420       53.8450099216
H                46.3327466829       18.6616510386       53.0391467596
H                49.1650454987       18.1426360930       53.1917526907
H                46.8318193953       16.7243163773       51.8107502755
H                48.1097519168       16.0431070874       54.5020463979
H                46.6573411270       17.0132750870       54.3540859052
H                48.2796556194       14.6930705690       51.8948592453
H                48.9825608666       15.9805100378       50.9141153232
H                49.5973685620       15.6549959731       52.5557152703
H                45.8961411856       14.8309112428       54.8162702215
H                45.5786671834       15.0659816129       53.0999151624
H                46.9540478665       14.0780632133       53.6446992494
N                50.0621048261       18.3675505035       50.9029386556
C                50.6584431838       18.8265754602       49.6650319613
C                50.2561696338       17.9986152267       48.4538435135
O                50.1291929660       18.5220616783       47.3506529951
H                50.6653872613       18.3695028187       51.7117353002
H                50.3756807181       19.8656713533       49.4544484370
H                51.7447507285       18.7694106557       49.7558462874
N                50.0585664775       16.6870793211       48.6328333001
C                49.8604872803       15.8239755345       47.4710680172
C                48.7481405565       16.3711155601       46.5608765218
O                48.8800423099       16.3665364212       45.3467989691
C                49.6852298170       14.3562140045       47.8895740365
C                48.3622046829       14.0149010129       48.5772802123
C                48.3079858327       12.5435682695       49.0102186427
C                48.9972295464       12.2630439511       50.3478061049
N                48.0054102939       12.1895042183       51.4688311542
H                50.3997213476       16.2528309832       49.4813998699
H                50.7582335727       15.8757600751       46.8370668725
H                49.7461605785       13.7580829363       46.9788650386
H                50.5440531908       14.0939249255       48.5107161503
H                48.1623276818       14.6752373630       49.4183139190
H                47.5782832250       14.1755818446       47.8460786810
H                47.2655211065       12.2318631476       49.0622229403
H                48.7660734208       11.9466697614       48.2241502610
H                49.5400773038       11.3203448764       50.3088335188
H                49.7015782700       13.0608100878       50.5786464497
H                48.4782347902       12.3234802351       52.3762597170
H                47.2813025951       12.9165177630       51.3505404390
H                47.5363301633       11.2714435802       51.4936812466
N                47.6317894528       16.8410076047       47.1461616455
C                46.5285518827       17.3298954467       46.3344838257
C                46.8969068507       18.5795837127       45.5269619580
O                46.3545598343       18.8493150533       44.4620926396
C                45.3165287697       17.6249491414       47.2246153904
C                44.8407553597       16.4384400772       48.0322805529
C                43.9081380481       16.6373551172       49.0501568634
C                45.3001126913       15.1481860861       47.8137871118
C                43.5062494403       15.6000262413       49.8668670649
C                44.9333932002       14.1070261787       48.6505333614
C                44.0461726505       14.3281965238       49.6937860301
O                43.6978097294       13.3412790675       50.5585284753
H                47.5519289305       16.9470216690       48.1479408403
H                46.2765215471       16.5730563948       45.5783406920
H                45.5776690710       18.4389621507       47.9094822478
H                44.5045945171       17.9916201068       46.5911959467
H                43.4735950496       17.6155869148       49.1966277238
H                45.9397561808       14.9309906437       46.9739632806
H                42.7691968655       15.7513751430       50.6399239503
H                45.3120373887       13.1127044252       48.4670416723
H                44.0083005171       12.4891850364       50.2206189893
N                47.8295531087       19.3613801226       46.0821487878
C                48.3203950807       20.5537437562       45.4292156425
C                49.0824859709       20.1974674231       44.1601005647
O                48.9487953374       20.8501139102       43.1212231951
C                49.2413074965       21.3296484840       46.3735077041
C                48.5311670200       21.7320881632       47.6593330983
S                47.0498770682       22.7598256907       47.3724931489
C                47.8394027992       24.3127225097       46.8736205321
H                48.3914188263       19.0166511267       46.8515330895
H                47.4636808980       21.1756132681       45.1364960309
H                50.0956716241       20.7004670246       46.6302728606
H                49.6109034300       22.2152283736       45.8552577064
H                48.1648576280       20.8591361263       48.1995000152
H                49.2007341685       22.3042201600       48.3011168424
H                47.0389971078       25.0272967756       46.7135978192
H                48.4911944521       24.6650453936       47.6686582740
H                48.3909269148       24.1660021225       45.9497472457
N                49.8871091745       19.1446354850       44.2385052217
C                50.6516665263       18.7062738345       43.0910782513
C                49.7473655760       18.5180222625       41.8797983855
O                50.1823173325       18.6912564681       40.7457889670
C                51.3446981776       17.3658896971       43.3565413686
C                52.3243692537       17.3635660006       44.5364255225
C                52.9410489957       15.9700836956       44.6513180800
C                53.4287821450       18.4014951757       44.3851066849
H                49.9852333928       18.6268813890       45.1025303539
H                51.3867695875       19.4787207240       42.8204958018
H                50.5720997676       16.6177185787       43.5479437998
H                51.8790609543       17.0872635222       42.4461192947
H                51.7643955282       17.5794497494       45.4521465396
H                53.6074948871       15.9164300582       45.5080144859
H                52.1660206320       15.2150130323       44.7510274357
H                53.5242616323       15.7494380936       43.7601700005
H                54.0896799885       18.3705582919       45.2467274336
H                54.0224281927       18.1968662629       43.4998087095
H                53.0292509591       19.4071971466       44.2997153220
N                48.4986858746       18.1017709180       42.1068867132
C                47.6002700868       17.8131595365       41.0025671212
C                47.2217569589       19.1121496467       40.3029270602
O                47.2077458882       19.2300431750       39.0849443431
C                46.3626154666       17.0459549622       41.4617152491
C                46.7071607280       15.8334370800       42.2931915396
C                45.7134848016       15.2828857833       43.0955393028
C                47.9747518765       15.2610578741       42.3169842965
C                45.9932879915       14.2300157122       43.9469001232
C                48.2577912634       14.2130599741       43.1760139991
C                47.2749907379       13.7080315800       44.0065371834
H                48.1888686218       17.8478139249       43.0336153273
H                48.1336621782       17.2107645049       40.2606650628
H                45.7095203462       17.6991152603       42.0477144657
H                45.8065756617       16.7523973235       40.5659370418
H                44.7097945099       15.6797450817       43.0436469478
H                48.7605297467       15.6166888809       41.6679972986
H                45.2029901570       13.8269935110       44.5612822699
H                49.2547051415       13.7977897641       43.1907078173
H                47.5018268082       12.8983000758       44.6813070139
N                46.9077158929       20.1227904681       41.1207310941
C                46.6483201419       21.4182932480       40.5348964861
C                47.8525609771       21.8241219232       39.6839682854
O                47.7042157134       22.2696214008       38.5531793187
C                46.2969549704       22.5007624835       41.5834172471
O                47.4113673173       22.9681998744       42.2941889916
C                45.1763971838       22.0109244688       42.5032933326
H                47.0175185337       20.0305666179       42.1202059459
H                45.8041933967       21.3234400141       39.8373825504
H                45.9430673307       23.3735252888       41.0207778076
H                47.8541545753       22.2270888685       42.7522371422
H                44.9291138421       22.7963212750       43.2119759556
H                44.2993338326       21.7831693363       41.9065493518
H                45.4694291522       21.1263332210       43.0654521947
N                49.0531690066       21.6331853955       40.2421143342
C                50.2469099546       22.0883691784       39.5542540946
C                50.4076873858       21.3150996784       38.2411577611
O                50.6481400334       21.9173063426       37.2014595178
C                51.4970171758       22.0373369529       40.4529063097
C                52.3979427857       20.8569393390       40.1339230892
S                53.6799809022       20.5812872268       41.4011230046
C                54.2089043885       18.9532787965       40.7876401374
H                49.1304617292       21.3698346786       41.2180028808
H                50.0898490210       23.1290662594       39.2404336954
H                52.0562571832       22.9658698878       40.3308470129
H                51.1734994180       21.9765937005       41.4945901355
H                51.8143199900       19.9421938604       40.1140104978
H                52.9052809105       20.9983254054       39.1785709783
H                55.0270070230       18.6258132766       41.4178955598
H                53.3718716155       18.2637244744       40.8523301450
H                54.5441760691       19.0472619467       39.7587405231
N                50.2798498976       19.9874413861       38.2681165145
C                50.5443781813       19.2338010582       37.0595551584
C                49.5181979663       19.5611552166       35.9924316922
O                49.8488497853       19.5981132421       34.8110397255
C                50.6030264065       17.7046423569       37.2588962403
C                49.2732752926       17.1959679456       37.8176872628
C                51.7870387493       17.3356414755       38.1427169782
C                49.1563285490       15.6837258502       37.9694527338
H                50.0679933451       19.4924815499       39.1267766930
H                51.5018296491       19.5782585291       36.6376837001
H                50.7601129914       17.2755192538       36.2631919707
H                49.1041467449       17.6838050556       38.7729574022
H                48.4779273685       17.5130922328       37.1457057907
H                51.8696789166       16.2564236608       38.2193127162
H                52.7087392018       17.7203739895       37.7134358420
H                51.6415378071       17.7541991022       39.1332031885
H                48.1505531885       15.4369794557       38.3048121953
H                49.3147978538       15.2123014933       37.0043564070
H                49.8665678171       15.2718066205       38.6807059712
N                48.2619446941       19.7529637116       36.3959447754
C                47.2582010760       20.1232535489       35.4169523765
C                47.6121947175       21.5086268961       34.8925174706
O                47.9230186843       21.6283142224       33.7046371131
C                45.8672721005       19.9907060598       36.0275630184
C                44.7437132450       20.7746241272       35.3957242703
C                43.5536431356       20.8669066712       36.1111774352
C                44.8297323353       21.4240415533       34.1709466060
C                42.5218423605       21.6627878219       35.6575092153
C                43.8128375784       22.2618205800       33.7378040620
C                42.6685440152       22.4034589473       34.4963905934
H                48.0097814850       19.7702780199       37.3794062168
H                47.3751613865       19.4593435735       34.5474789256
H                45.6207352163       18.9263418207       36.0236937190
H                45.9313084058       20.3076734933       37.0718986313
H                43.4285440917       20.3072152614       37.0275375832
H                45.6879213517       21.2691073686       33.5426085610
H                41.6189352618       21.7105442447       36.2428274559
H                43.8981719287       22.8177678422       32.8144693044
H                41.9032269579       23.0823601172       34.1538049780
N                47.6286420664       22.5283510061       35.7312490180
C                47.8472894474       23.8738323131       35.2265452965
C                49.1155136687       23.9145416055       34.3766427533
O                49.1521527446       24.5682228161       33.3398336639
C                47.8392723175       24.8807034938       36.3914781489
C                49.1199591527       24.8091289908       37.2146971209
C                47.6153654285       26.3041610443       35.8908269848
H                47.4290642024       22.4206458190       36.7198683914
H                47.0345621987       24.1144023918       34.5248239016
H                47.0013932384       24.5941046587       37.0368159599
H                48.9895465948       25.3614610425       38.1417366939
H                49.3507409488       23.7793016793       37.4565804399
H                49.9585051075       25.2318060182       36.6676778198
H                47.6469641548       26.9997326854       36.7265368955
H                48.3954538921       26.5811638996       35.1860339384
H                46.6507043792       26.4018113881       35.4000493878
N                50.1621231352       23.2103883524       34.8155194691
C                51.3760103549       23.1486088246       34.0378747653
C                51.1363621371       22.3926259508       32.7461878999
O                51.6843333505       22.8003272361       31.7258163564
C                52.5628244794       22.5375078685       34.7955098782
C                52.9759734907       23.4533170282       35.9492382993
C                53.7440846299       22.3221577960       33.8525276904
C                53.8750178987       22.7298076731       36.9419385829
H                50.1240569592       22.6615672451       35.6650390628
H                51.6509674451       24.1661197082       33.7226608814
H                52.2285393064       21.5763900722       35.1965989159
H                53.4860912357       24.3279138549       35.5418054829
H                52.0756863744       23.7821216189       36.4652075013
H                54.5899791612       21.9116313760       34.3940154492
H                53.4914383304       21.6404006423       33.0463009788
H                54.0423933497       23.2713086092       33.4125435139
H                54.0126191399       23.3289665403       37.8371407810
H                53.4031426293       21.7891472310       37.2156706766
H                54.8510961425       22.5163811862       36.5169362947
N                50.3700342725       21.3088515336       32.7571742043
C                50.0926711372       20.6245197250       31.5135769839
C                49.2833298342       21.5277344074       30.5962049606
O                49.6156767934       21.6830309359       29.4279744133
C                49.3711529863       19.2877807271       31.7250997294
O                48.0075034293       19.4196893627       32.0115174573
H                50.0066913107       20.8844209462       33.6046245811
H                51.0423025929       20.4299330691       31.0015827006
H                49.4294528389       18.7045611022       30.8018213571
H                49.8922095201       18.7495861065       32.5286477229
H                47.9079526968       20.1339819870       32.6703588324
N                48.2091352389       22.1234013667       31.0954833509
C                47.4545534984       23.0251122382       30.2626258192
C                48.3642561734       24.1363043836       29.7415500288
O                48.1941267312       24.5578843097       28.5995927697
C                46.2359538708       23.5187853549       31.0514170145
O                46.5907994635       24.1771260865       32.2344423676
H                48.0411651238       22.1421800627       32.0952530175
H                47.0917868543       22.5042234848       29.3640320318
H                45.6019854647       24.1391401540       30.4079021386
H                45.6657387082       22.6378422983       31.3551841297
H                46.9207271128       25.0672668003       32.0521024886
N                49.3218790765       24.5726943157       30.5541645851
C                50.3334340323       25.5359246653       30.1699933277
C                51.2980715278       24.9470822413       29.1488700172
O                51.5676771209       25.6278285527       28.1516724520
C                51.0795445822       26.0351631730       31.4230442784
C                50.3287058081       27.1699101061       32.1337304951
C                52.5198416016       26.4163036711       31.1000014563
C                50.2889951780       28.4918352204       31.3794187894
H                49.3291534645       24.3299918144       31.5418963614
H                49.8638868918       26.3821493283       29.6484877833
H                51.1067683137       25.1947437691       32.1191738038
H                49.3122696651       26.8352266545       32.3458878202
H                50.8295998198       27.3365221642       33.0897413229
H                53.0008553815       26.8237326197       31.9840029065
H                53.0780029053       25.5403557113       30.7796806691
H                52.5503190188       27.1546047737       30.3045567028
H                49.7656173136       29.2384784349       31.9708942140
H                51.2930330364       28.8588477887       31.1942878809
H                49.7772446698       28.4019393121       30.4255284380
N                51.8336389967       23.7520025852       29.3262880429
C                52.7425584814       23.2562510685       28.3155726155
C                51.9666967646       22.9420505542       27.0510296774
O                52.5321953981       22.9734453385       25.9622778916
C                53.5309803965       21.9826347113       28.6761574108
C                52.5379165462       20.8244401560       28.8045546177
C                54.3958763263       22.2320371383       29.9020436030
C                53.0814774837       19.5052363220       29.3259958640
H                51.6900606212       23.2366610986       30.1935336405
H                53.4472944345       24.0602537188       28.0642209650
H                54.1845081903       21.7842397315       27.8184886596
H                51.7228797374       21.1447594085       29.4442129595
H                52.1168227434       20.6403122018       27.8150483446
H                54.9568829965       21.3413242925       30.1653156356
H                55.1077090885       23.0246896360       29.6853556008
H                53.7681285731       22.5291150580       30.7351859772
H                52.2537212523       18.8033180268       29.4077084260
H                53.8131322616       19.1043122933       28.6318049455
H                53.5308561117       19.6135706151       30.3079749883
N                44.4990421301       13.0372344649       31.3699875785
C                45.0765546862       13.7150912104       32.5142936814
C                43.9617008131       14.1297092769       33.4704841801
O                44.0714929335       13.9762853324       34.6862980486
C                45.8894073558       14.9335016736       32.0467915773
C                47.0969853406       14.5315477412       31.1874506482
C                46.3256639349       15.7919260161       33.2284290085
C                48.0807729525       13.5712515426       31.8410747288
H                44.7125503006       13.4070507452       30.4500506631
H                45.7132928784       13.0134017451       33.0717338860
H                45.2243963136       15.5291863781       31.4126906664
H                46.7364586810       14.0770972204       30.2672988419
H                47.6235341526       15.4502463297       30.9218612606
H                46.9252930075       16.6253080938       32.8704825056
H                45.4689339293       16.1924737664       33.7633773569
H                46.9172304916       15.2033273984       33.9224372928
H                48.8832252724       13.3583518716       31.1401210841
H                48.5205542638       13.9951569637       32.7388357109
H                47.5996958456       12.6307850275       32.0947557890
N                43.2862976600       12.8892702890       37.0800912630
C                43.2516232633       13.8771741245       38.1379943574
C                41.9213722916       13.7884863475       38.8870459037
O                41.8632097055       13.9077571902       40.1074962826
C                43.4259539220       15.2902686722       37.5550760662
O                44.6867034180       15.4945646923       36.9880672941
H                43.2472038646       13.2225663631       36.1204314447
H                44.0520645299       13.6713805487       38.8595805703
H                42.6232383097       15.4582648172       36.8240604783
H                43.3257970698       16.0212511765       38.3613344334
H                44.7588771807       14.9390304739       36.1938956679
N                42.3601711564       10.6837293012       40.6850505507
C                43.0805537952       10.9828169279       41.9063667591
C                42.0565295382       11.4853932522       42.9324621743
O                41.9524503660       10.9764989366       44.0412092547
C                44.1711298204       11.9972172238       41.5957819224
H                42.8428164833       10.8939279841       39.8128089527
H                43.4988903800       10.0462862569       42.3067566203
H                44.7802290787       12.1908584290       42.4716431486
H                44.8090660693       11.6248383329       40.7968605952
H                43.7126604055       12.9273965786       41.2728044271
N                40.9480575482        9.3143165888       46.1633780914
C                41.0150353588       10.0579812184       47.3958114735
C                39.6036327565       10.1763762277       47.9857675652
O                39.4535911995       10.0656881174       49.2024471304
C                41.7745549598       11.3647724716       47.1367446491
C                43.2592650889       10.9969443973       46.9871638966
C                41.5113388325       12.3772460785       48.2428797841
C                44.0794038210       12.0502299230       46.2561669397
H                41.1644049954        9.8199761902       45.3090385149
H                41.5734285070        9.4673615227       48.1389954018
H                41.4020494105       11.7783425787       46.1966739041
H                43.6627789834       10.8037695042       47.9817689296
H                43.3144405978       10.0734720713       46.4100160411
H                42.1209073470       13.2658297473       48.1054801349
H                40.4642532671       12.6811714886       48.2246876133
H                41.7029503537       11.9449548516       49.2217627097
H                45.1358703346       11.7967837125       46.3019801814
H                43.7713591361       12.0700952297       45.2159644967
H                43.9149711729       13.0352441165       46.6798554280
H                60.3320779191       28.0793619742       37.6542305615
H                58.1081362097       30.3025188844       36.4709652367
H                39.3490581187       26.8179872156       35.7559915249
H                37.5255923980       24.5448648111       33.9279674495
H                37.9001854090       28.2362814934       31.1492331811
H                37.6440654623       25.0955026274       28.2190382340
H                44.3779979442       31.1747903923       45.8399719364
H                47.4102073599       30.1361425102       47.0824087852
H                45.3269041744       28.2762669443       51.0183165896
H                48.2711274809       28.1514405269       52.6678996055
H                46.3166915982       22.8674053826       54.4909187044
H                50.9955723347       22.7096583793       27.1049853875
H                44.7803398855       12.1824797985       31.3536770584
H                43.1207649854       14.5352422183       33.1121966321
H                44.0506070570       12.4172125759       37.1347964843
H                41.0728551058       13.6300253287       38.3821610744
H                42.1696692696        9.8045939720       40.6562390245
H                41.4517274130       12.2479958344       42.7030026113
H                41.5309743710        8.6292745864       46.1937990160
H                38.8222906628       10.3411143919       47.3837992356
