 318 
 
N               181.8740000000       67.6070000000       90.9580000000
C               183.2070000000       67.5850000000       90.4080000000
C               184.1650000000       67.9600000000       91.5130000000
O               183.7580000000       68.3970000000       92.5580000000
C               183.3480000000       68.5560000000       89.2480000000
O               183.0800000000       69.8640000000       89.6570000000
H               181.7300000000       68.2770000000       91.4780000000
H               183.4000000000       66.6990000000       90.0650000000
H               184.2460000000       68.5040000000       88.8850000000
H               182.7400000000       68.3050000000       88.5350000000
H               182.4390000000       69.8620000000       90.2000000000
N               185.4500000000       67.7470000000       91.2860000000
C               186.4450000000       68.1210000000       92.3030000000
C               187.7770000000       68.5960000000       91.6960000000
O               188.0990000000       68.2770000000       90.5500000000
C               186.7210000000       66.9200000000       93.2450000000
C               187.2430000000       65.6820000000       92.4870000000
O               188.3990000000       65.3110000000       92.7270000000
O               186.4800000000       65.1120000000       91.6700000000
H               185.7710000000       67.3960000000       90.5700000000
H               186.0660000000       68.8650000000       92.7970000000
H               187.3700000000       67.1820000000       93.9160000000
H               185.9050000000       66.6870000000       93.7150000000
N               188.4920000000       69.4180000000       92.4600000000
C               189.7880000000       69.9440000000       92.0810000000
C               190.7140000000       69.7290000000       93.2710000000
O               190.3370000000       70.0520000000       94.4070000000
C               189.6980000000       71.4180000000       91.7430000000
O               188.8600000000       72.1040000000       92.7000000000
C               189.1540000000       71.6300000000       90.3980000000
H               188.2250000000       69.6890000000       93.2310000000
H               190.1220000000       69.4920000000       91.2900000000
H               190.5990000000       71.7760000000       91.7750000000
H               188.0680000000       72.1200000000       92.4190000000
H               189.1090000000       72.5810000000       90.2130000000
H               189.7280000000       71.2010000000       89.7450000000
H               188.2640000000       71.2490000000       90.3450000000
N               191.9220000000       69.2120000000       93.0550000000
C               192.9070000000       68.9460000000       94.1350000000
C               193.3100000000       70.2070000000       94.8320000000
O               194.0120000000       71.0190000000       94.2760000000
C               194.1150000000       68.2880000000       93.5480000000
H               192.2070000000       69.0000000000       92.2720000000
H               192.4920000000       68.3630000000       94.7900000000
H               194.7610000000       68.1120000000       94.2500000000
H               193.8570000000       67.4520000000       93.1300000000
H               194.5110000000       68.8730000000       92.8830000000
N               192.9380000000       70.3500000000       96.0840000000
C               193.2290000000       71.5680000000       96.8380000000
C               194.4780000000       71.4000000000       97.7230000000
O               194.3450000000       70.9020000000       98.8480000000
C               192.0170000000       72.0200000000       97.6690000000
H               192.5100000000       69.7510000000       96.5290000000
H               193.4190000000       72.2660000000       96.1920000000
H               192.2420000000       72.8280000000       98.1560000000
H               191.2680000000       72.1960000000       97.0790000000
H               191.7760000000       71.3210000000       98.2970000000
N               195.6310000000       71.8120000000       97.2140000000
C               196.8790000000       71.6990000000       97.9680000000
C               197.0300000000       72.7830000000       99.0510000000
O               197.6990000000       73.8060000000       98.8140000000
C               198.1040000000       71.6850000000       97.0140000000
O               197.9980000000       72.6430000000       95.9780000000
C               198.2750000000       70.2760000000       96.4380000000
H               195.7160000000       72.1610000000       96.4330000000
H               196.8420000000       70.8510000000       98.4370000000
H               198.8890000000       71.9290000000       97.5290000000
H               198.6790000000       72.6030000000       95.4880000000
H               199.0390000000       70.2610000000       95.8410000000
H               198.4180000000       69.6460000000       97.1610000000
H               197.4760000000       70.0280000000       95.9470000000
N               196.3620000000       72.5470000000      100.1590000000
C               196.3680000000       73.4220000000      101.3130000000
C               197.7960000000       73.5950000000      101.8290000000
O               198.5290000000       72.6150000000      101.9670000000
C               195.4890000000       72.8420000000      102.4560000000
C               195.4950000000       73.7890000000      103.6590000000
C               194.0560000000       72.6360000000      101.9380000000
H               195.8740000000       71.8470000000      100.2660000000
H               196.0060000000       74.2790000000      101.0390000000
H               195.8500000000       71.9880000000      102.7410000000
H               194.9440000000       73.4180000000      104.3660000000
H               196.4040000000       73.8980000000      103.9810000000
H               195.1410000000       74.6520000000      103.3930000000
H               193.5040000000       72.2740000000      102.6490000000
H               193.6910000000       73.4870000000      101.6470000000
H               194.0680000000       72.0170000000      101.1910000000
N               197.4640000000       64.6430000000      106.4370000000
C               196.1580000000       64.3420000000      107.0380000000
C               196.1860000000       63.3850000000      108.2260000000
O               195.4720000000       62.3850000000      108.2480000000
C               195.2160000000       63.7700000000      105.9490000000
C               194.9750000000       64.4740000000      104.6220000000
C               194.1180000000       63.6260000000      103.7380000000
C               194.3840000000       65.8540000000      104.8250000000
H               197.5950000000       65.4790000000      106.2830000000
H               195.8390000000       65.1860000000      107.3940000000
H               195.5450000000       62.8830000000      105.7360000000
H               194.3470000000       63.6580000000      106.3650000000
H               195.8300000000       64.6000000000      104.1810000000
H               193.9700000000       64.0830000000      102.8950000000
H               194.5610000000       62.7790000000      103.5730000000
H               193.2650000000       63.4650000000      104.1720000000
H               194.2430000000       66.2760000000      103.9630000000
H               193.5360000000       65.7780000000      105.2900000000
H               194.9940000000       66.3930000000      105.3520000000
N               192.2620000000       62.3410000000       99.9440000000
C               192.8140000000       63.5460000000       99.3130000000
C               191.9250000000       64.7670000000       99.5610000000
O               190.7250000000       64.6360000000       99.7380000000
C               193.0680000000       63.3470000000       97.8240000000
O               192.1070000000       62.4950000000       97.2310000000
H               191.4030000000       62.3130000000       99.9690000000
H               193.6730000000       63.7130000000       99.7320000000
H               193.0560000000       64.2080000000       97.3770000000
H               193.9540000000       62.9730000000       97.6950000000
H               192.2760000000       62.4090000000       96.4130000000
N               192.5420000000       65.9530000000       99.6110000000
C               191.8240000000       67.2030000000       99.8800000000
C               191.3770000000       67.7780000000       98.5640000000
O               192.2020000000       68.0420000000       97.6950000000
C               192.7060000000       68.2270000000      100.6380000000
C               191.9650000000       69.5250000000      100.9030000000
C               193.2170000000       67.6250000000      101.9220000000
H               193.3870000000       66.0540000000       99.4900000000
H               191.0620000000       67.0120000000      100.4490000000
H               193.4630000000       68.4430000000      100.0720000000
H               192.5470000000       70.1390000000      101.3770000000
H               191.6950000000       69.9220000000      100.0600000000
H               191.1780000000       69.3450000000      101.4410000000
H               193.7670000000       68.2740000000      102.3880000000
H               192.4670000000       67.3760000000      102.4840000000
H               193.7460000000       66.8370000000      101.7220000000
N               190.0670000000       67.9510000000       98.4060000000
C               189.5510000000       68.5060000000       97.1580000000
C               188.5340000000       69.5960000000       97.4280000000
O               187.8200000000       69.5390000000       98.4480000000
C               188.9100000000       67.4210000000       96.2590000000
C               189.9330000000       66.3770000000       95.8900000000
C               187.7150000000       66.7780000000       96.9660000000
H               189.4710000000       67.7580000000       98.9960000000
H               190.3120000000       68.8820000000       96.6880000000
H               188.5920000000       67.8410000000       95.4450000000
H               189.5200000000       65.7030000000       95.3270000000
H               190.6640000000       66.7960000000       95.4090000000
H               190.2740000000       65.9590000000       96.6960000000
H               187.3240000000       66.1010000000       96.3910000000
H               188.0110000000       66.3670000000       97.7930000000
H               187.0510000000       67.4570000000       97.1620000000
N               188.4620000000       70.5470000000       96.5060000000
C               187.4870000000       71.6230000000       96.6060000000
C               186.3020000000       71.2110000000       95.7410000000
O               186.5050000000       70.7680000000       94.5870000000
C               188.1010000000       72.9390000000       96.1010000000
C               187.2250000000       74.1840000000       96.2990000000
C               186.3310000000       74.4490000000       95.1110000000
C               187.1240000000       74.6400000000       93.8340000000
N               186.1650000000       74.7090000000       92.6870000000
H               188.9700000000       70.5870000000       95.8130000000
H               187.2100000000       71.7690000000       97.5240000000
H               188.9470000000       73.0800000000       96.5550000000
H               188.2980000000       72.8460000000       95.1560000000
H               186.6790000000       74.0700000000       97.0930000000
H               187.7930000000       74.9550000000       96.4530000000
H               185.7140000000       73.7090000000       95.0000000000
H               185.7960000000       75.2400000000       95.2800000000
H               187.6510000000       75.4530000000       93.8830000000
H               187.7460000000       73.9060000000       93.7100000000
H               186.6170000000       74.6900000000       91.9200000000
H               185.6100000000       74.0140000000       92.7210000000
H               185.6970000000       75.4640000000       92.7360000000
N               185.0780000000       71.3080000000       96.2790000000
C               183.9100000000       70.8840000000       95.5200000000
C               183.3470000000       71.8970000000       94.5130000000
O               183.5410000000       73.1090000000       94.6400000000
C               182.8030000000       70.4400000000       96.4850000000
C               183.1860000000       69.3850000000       97.5220000000
S               184.3690000000       68.1730000000       96.8470000000
C               183.3080000000       67.2900000000       95.6350000000
H               184.9120000000       71.6110000000       97.0660000000
H               184.2270000000       70.1500000000       94.9710000000
H               182.4770000000       71.2240000000       96.9550000000
H               182.0630000000       70.0960000000       95.9610000000
H               183.5750000000       69.8190000000       98.2970000000
H               182.3880000000       68.9240000000       97.8250000000
H               183.8270000000       66.6000000000       95.1930000000
H               182.5580000000       66.8840000000       96.0970000000
H               182.9780000000       67.9190000000       94.9750000000
N               182.6470000000       71.3820000000       93.5150000000
C               182.0390000000       72.1620000000       92.4450000000
C               180.8180000000       71.3990000000       91.9360000000
O               180.9050000000       70.2450000000       91.5000000000
C               183.0420000000       72.4140000000       91.3090000000
O               184.1810000000       73.0720000000       91.8210000000
H               182.5060000000       70.5370000000       93.4370000000
H               181.7690000000       73.0300000000       92.7820000000
H               183.2990000000       71.5730000000       90.9000000000
H               182.6300000000       72.9530000000       90.6150000000
H               184.6660000000       73.3300000000       91.1850000000
N               185.7120000000       72.3930000000      101.3420000000
C               186.7540000000       71.3620000000      101.2460000000
C               186.0570000000       70.0010000000      101.4330000000
O               184.9960000000       69.9120000000      102.0890000000
C               187.8260000000       71.5840000000      102.3310000000
C               188.6480000000       72.8730000000      102.2130000000
C               189.7380000000       72.9180000000      103.3060000000
C               189.2990000000       72.8840000000      100.8440000000
H               185.5720000000       72.6640000000      102.1460000000
H               187.2040000000       71.3980000000      100.3870000000
H               187.3890000000       71.5780000000      103.1970000000
H               188.4360000000       70.8300000000      102.3160000000
H               188.0720000000       73.6450000000      102.3270000000
H               190.2500000000       73.7380000000      103.2200000000
H               189.3200000000       72.8890000000      104.1810000000
H               190.3300000000       72.1560000000      103.2050000000
H               189.8270000000       73.6920000000      100.7430000000
H               189.8750000000       72.1090000000      100.7530000000
H               188.6130000000       72.8590000000      100.1590000000
N               186.6630000000       68.9740000000      100.8590000000
C               186.1070000000       67.6260000000      100.9220000000
C               187.1950000000       66.5600000000      100.8480000000
O               188.0050000000       66.5330000000       99.9270000000
C               185.1040000000       67.4160000000       99.8100000000
H               187.4030000000       69.0340000000      100.4240000000
H               185.6610000000       67.5370000000      101.7790000000
H               184.7440000000       66.5170000000       99.8650000000
H               184.3830000000       68.0590000000       99.8990000000
H               185.5410000000       67.5370000000       98.9530000000
N               187.1780000000       65.6830000000      101.8420000000
C               188.1600000000       64.6070000000      101.8750000000
C               187.6630000000       63.4940000000      100.9490000000
O               186.7520000000       62.7590000000      101.2890000000
C               188.3330000000       64.0640000000      103.3120000000
C               189.3630000000       62.9620000000      103.2650000000
C               188.7510000000       65.1820000000      104.2190000000
H               186.6190000000       65.6900000000      102.4950000000
H               189.0230000000       64.9380000000      101.5810000000
H               187.5020000000       63.7050000000      103.6600000000
H               189.4920000000       62.6010000000      104.1560000000
H               189.0570000000       62.2570000000      102.6730000000
H               190.2030000000       63.3180000000      102.9360000000
H               188.8600000000       64.8430000000      105.1210000000
H               189.5920000000       65.5530000000      103.9090000000
H               188.0720000000       65.8740000000      104.2140000000
N               188.2340000000       63.4470000000       99.7560000000
C               187.8730000000       62.4630000000       98.7450000000
C               188.5570000000       61.1470000000       99.0420000000
O               189.7380000000       61.0980000000       99.4470000000
C               188.2900000000       62.9700000000       97.3580000000
C               187.9090000000       62.0430000000       96.2040000000
C               188.3590000000       62.6190000000       94.9060000000
C               188.1520000000       61.6620000000       93.7630000000
N               188.6280000000       62.2210000000       92.4800000000
H               188.8500000000       63.9920000000       99.5060000000
H               186.9120000000       62.3290000000       98.7580000000
H               187.8840000000       63.8380000000       97.2080000000
H               189.2510000000       63.1010000000       97.3490000000
H               188.3130000000       61.1710000000       96.3350000000
H               186.9480000000       61.9120000000       96.1910000000
H               187.8730000000       63.4400000000       94.7310000000
H               189.2990000000       62.8530000000       94.9650000000
H               188.6210000000       60.8330000000       93.9470000000
H               187.2090000000       61.4450000000       93.6910000000
H               188.1230000000       61.9110000000       91.8160000000
H               188.5740000000       63.1090000000       92.5040000000
H               189.4740000000       61.9800000000       92.3460000000
N               183.0340000000       61.4850000000       99.0820000000
C               183.4080000000       62.8130000000       99.5360000000
C               182.8940000000       63.0860000000      100.9390000000
O               181.6910000000       62.9550000000      101.2030000000
C               182.8380000000       63.8600000000       98.5940000000
C               183.2840000000       63.7170000000       97.1610000000
C               182.4350000000       63.1630000000       96.1920000000
C               184.5640000000       64.0910000000       96.7760000000
C               182.8400000000       63.0040000000       94.8620000000
C               184.9880000000       63.9420000000       95.4610000000
C               184.1200000000       63.4070000000       94.4930000000
O               184.5580000000       63.2680000000       93.1870000000
H               182.1850000000       61.3600000000       99.0250000000
H               184.3770000000       62.8580000000       99.5450000000
H               181.8700000000       63.8150000000       98.6260000000
H               183.0920000000       64.7400000000       98.9140000000
H               181.5800000000       62.8940000000       96.4400000000
H               185.1470000000       64.4470000000       97.4080000000
H               182.2620000000       62.6340000000       94.2340000000
H               185.8490000000       64.1970000000       95.2200000000
H               185.0920000000       63.8890000000       93.0030000000
N               193.2330000000       70.1420000000      108.6750000000
C               191.9460000000       69.8590000000      108.0290000000
C               191.2130000000       68.7900000000      108.8150000000
O               191.7280000000       67.6790000000      109.0250000000
C               192.1330000000       69.4420000000      106.5490000000
C               190.8020000000       69.1090000000      105.9140000000
C               193.1100000000       68.2890000000      106.4230000000
C               190.9410000000       68.5640000000      104.4270000000
H               193.7500000000       69.4590000000      108.7570000000
H               191.4130000000       70.6690000000      108.0260000000
H               192.5110000000       70.1960000000      106.0700000000
H               190.3480000000       68.4440000000      106.4560000000
H               190.2430000000       69.9020000000      105.9110000000
H               193.2080000000       68.0490000000      105.4880000000
H               193.9720000000       68.5540000000      106.7810000000
H               192.7760000000       67.5260000000      106.9190000000
H               190.0610000000       68.3670000000      104.0710000000
H               191.3700000000       69.2360000000      103.8750000000
H               191.4770000000       67.7560000000      104.4270000000
H               181.2736272106       67.6505767277       90.2889308089
H               198.1385860638       74.5066314197      102.0560747532
H               198.1193546052       64.3697851251      106.9900497026
H               196.7911186445       63.5675233121      109.0009301043
H               192.5340889673       61.6128435236       99.4903969359
H               179.9165873624       71.8317501645       91.9495111802
H               185.9527131526       73.1097873881      100.8538678269
H               188.0628911845       60.2868881464       98.9152558571
H               183.3786691171       61.3391724908       98.2635028789
H               183.5282031614       63.3735467547      101.6567069137
H               193.6833853457       70.7536540428      108.1922657332
H               190.2981437587       68.9729554822      109.1749518709
