548
Properties=species:S:1:pos:R:3 pbc="F F F"
N      53.31400000      25.69900000       9.90100000 
C      52.72300000      24.81300000      10.87300000 
C      53.77100000      23.94400000      11.52300000 
O      53.65100000      23.57100000      12.70200000 
C      51.63500000      23.99100000      10.20000000 
C      50.79800000      23.24400000      11.19200000 
O      50.88800000      22.01500000      11.31800000 
N      49.95600000      23.97900000      11.92000000 
H      53.07200000      25.60700000       8.94100000 
H      52.29000000      25.39600000      11.65800000 
H      51.00900000      24.67800000       9.65000000 
H      52.06600000      23.28600000       9.51100000 
H      49.37500000      23.53600000      12.59200000 
H      49.86200000      24.95900000      11.79500000 
N      54.81500000      23.61400000      10.77800000 
C      55.94900000      22.89100000      11.30600000 
C      56.61000000      23.73000000      12.36400000 
O      56.98600000      23.24200000      13.44400000 
C      56.90500000      22.63800000      10.14400000 
C      58.30500000      22.19900000      10.51100000 
C      58.42800000      20.75600000      10.95900000 
C      59.88500000      20.36100000      10.91500000 
N      60.04700000      18.88400000      11.05700000 
H      54.89000000      23.98300000       9.86100000 
H      55.62500000      21.97900000      11.77300000 
H      56.44800000      21.90700000       9.49500000 
H      56.97900000      23.56000000       9.59400000 
H      58.91200000      22.32600000       9.62400000 
H      58.72500000      22.84900000      11.26300000 
H      58.03800000      20.62200000      11.95900000 
H      57.86300000      20.12300000      10.29100000 
H      60.31800000      20.62100000       9.96500000 
H      60.44200000      20.82800000      11.70700000 
H      61.00600000      18.61500000      10.94700000 
H      59.73500000      18.56600000      11.95900000 
H      59.50900000      18.40300000      10.35400000 
N      56.79200000      25.00500000      12.07300000 
C      57.51400000      25.86900000      12.96400000 
C      56.76400000      26.06200000      14.24900000 
O      57.37200000      26.05100000      15.33500000 
C      57.75100000      27.20500000      12.28900000 
H      56.46900000      25.36900000      11.20400000 
H      58.44800000      25.40600000      13.23200000 
H      58.25900000      27.87800000      12.95700000 
H      58.35700000      27.06100000      11.40700000 
H      56.80800000      27.64000000      11.99600000 
N      55.45600000      26.26800000      14.18600000 
C      54.73000000      26.40800000      15.42300000 
C      54.80500000      25.12000000      16.18800000 
O      54.99000000      25.12500000      17.41800000 
C      53.29300000      26.88900000      15.24600000 
C      52.50700000      26.16100000      14.17500000 
C      52.55900000      26.78300000      16.56700000 
H      54.99800000      26.31600000      13.30000000 
H      55.23900000      27.12500000      16.04500000 
H      53.36200000      27.93100000      14.96600000 
H      51.49300000      26.53800000      14.16800000 
H      52.93100000      26.32400000      13.20500000 
H      52.46800000      25.10100000      14.36000000 
H      51.61000000      27.27900000      16.48600000 
H      52.36400000      25.74500000      16.80500000 
H      53.11500000      27.21400000      17.38200000 
N      54.67600000      23.97800000      15.52900000 
C      54.84000000      22.73300000      16.23700000 
C      56.15700000      22.70300000      16.96400000 
O      56.21900000      22.26400000      18.12800000 
C      54.77200000      21.59900000      15.21900000 
C      55.28600000      20.33300000      15.82300000 
O      54.56800000      19.64300000      16.56100000 
N      56.55200000      20.03000000      15.56400000 
H      54.46600000      23.95700000      14.55400000 
H      54.08600000      22.61500000      16.99100000 
H      53.74800000      21.45700000      14.92600000 
H      55.35400000      21.87100000      14.35900000 
H      56.93500000      19.21000000      15.97500000 
H      57.20200000      20.64000000      15.10500000 
N      57.22200000      23.08400000      16.30300000 
C      58.52700000      22.97400000      16.90100000 
C      58.62000000      23.87800000      18.10500000 
O      59.20100000      23.52000000      19.14400000 
C      59.56600000      23.32700000      15.86300000 
C      59.63000000      22.33000000      14.72400000 
O      59.10600000      21.19100000      14.89800000 
O      60.25000000      22.70400000      13.69100000 
H      57.15200000      23.34400000      15.34100000 
H      58.68000000      21.97000000      17.24700000 
H      59.36500000      24.30600000      15.46200000 
H      60.54500000      23.35500000      16.32200000 
N      58.05800000      25.07200000      17.98900000 
C      58.04500000      26.02600000      19.06500000 
C      57.30200000      25.48800000      20.25500000 
O      57.76200000      25.59200000      21.40400000 
C      57.37100000      27.29000000      18.54400000 
C      57.18800000      28.35600000      19.57500000 
C      58.28000000      28.96400000      20.17900000 
C      55.91600000      28.77300000      19.92500000 
C      58.10300000      29.97400000      21.10100000 
C      55.73100000      29.79200000      20.84400000 
C      56.82600000      30.39500000      21.43100000 
H      57.62300000      25.32300000      17.12400000 
H      59.04600000      26.23100000      19.40000000 
H      57.96800000      27.65800000      17.72200000 
H      56.41600000      27.00700000      18.14300000 
H      59.26600000      28.64400000      19.91900000 
H      55.07100000      28.30500000      19.47000000 
H      58.95500000      30.43100000      21.56100000 
H      54.74200000      30.10700000      21.10200000 
H      56.68600000      31.17000000      22.14900000 
N      56.13300000      24.91100000      20.01300000 
C      55.36400000      24.29700000      21.06800000 
C      56.18300000      23.22300000      21.73000000 
O      56.24300000      23.11100000      22.97000000 
C      54.07200000      23.75600000      20.44700000 
C      53.14600000      24.94200000      20.14700000 
C      53.38800000      22.72000000      21.31700000 
C      51.66900000      24.58000000      20.08600000 
H      55.79000000      24.86000000      19.07600000 
H      55.13700000      25.01400000      21.83800000 
H      54.35400000      23.28200000      19.52000000 
H      53.28200000      25.68700000      20.91800000 
H      53.45000000      25.39100000      19.21400000 
H      52.65700000      22.17600000      20.73900000 
H      54.07800000      22.00000000      21.73000000 
H      52.87300000      23.19800000      22.12400000 
H      51.08200000      25.42900000      19.76500000 
H      51.48800000      23.77000000      19.39800000 
H      51.30200000      24.27900000      21.05500000 
N      56.81100000      22.38000000      20.92600000 
C      57.51200000      21.24500000      21.46100000 
C      58.64000000      21.66100000      22.35700000 
O      59.03000000      20.93000000      23.28100000 
C      58.10700000      20.38900000      20.34700000 
C      58.08200000      18.90600000      20.70800000 
C      56.81100000      18.28100000      20.16100000 
C      59.32100000      18.19500000      20.19600000 
H      56.72300000      22.47000000      19.93400000 
H      56.83500000      20.65700000      22.05800000 
H      57.54800000      20.55200000      19.44200000 
H      59.11500000      20.72300000      20.15000000 
H      58.07600000      18.82500000      21.78300000 
H      56.72000000      17.24400000      20.46000000 
H      55.93600000      18.81500000      20.51300000 
H      56.81900000      18.32800000      19.08300000 
H      59.27400000      17.13500000      20.40400000 
H      59.42100000      18.32900000      19.12800000 
H      60.20900000      18.59600000      20.67200000 
N      59.25400000      22.79700000      22.04600000 
C      60.47600000      23.20000000      22.68600000 
C      60.30400000      23.52500000      24.13800000 
O      61.30500000      23.62400000      24.86400000 
C      61.01600000      24.43600000      21.98700000 
H      58.96500000      23.29900000      21.23400000 
H      61.19800000      22.40200000      22.63800000 
H      61.94600000      24.73700000      22.43800000 
H      61.17900000      24.22100000      20.94200000 
H      60.30300000      25.23900000      22.06200000 
N      59.08400000      23.78300000      24.60000000 
C      58.91000000      24.24500000      25.95100000 
C      59.17800000      23.10000000      26.90800000 
O      58.53100000      22.04900000      26.81200000 
C      57.47800000      24.72000000      26.14900000 
C      56.94800000      25.64800000      25.07900000 
S      57.53300000      27.40900000      25.21500000 
C      56.39000000      28.08100000      23.90800000 
H      58.28900000      23.59300000      24.03300000 
H      59.61300000      25.03800000      26.13600000 
H      56.84100000      23.84900000      26.15900000 
H      57.39900000      25.18900000      27.11900000 
H      57.19300000      25.31700000      24.09100000 
H      55.87800000      25.70300000      25.16500000 
H      56.34900000      29.15000000      24.00800000 
H      56.75500000      27.81400000      22.93400000 
H      55.41500000      27.65600000      24.07100000 
N      60.09600000      23.29100000      27.86100000 
C      60.39500000      22.28400000      28.85700000 
C      60.24200000      22.94900000      30.20300000 
O      61.13500000      23.67400000      30.66400000 
C      61.77900000      21.69500000      28.69600000 
C      62.00000000      20.64900000      29.74200000 
O      61.03900000      20.02200000      30.21900000 
N      63.25300000      20.42300000      30.12800000 
H      60.64600000      24.11400000      27.84700000 
H      59.66800000      21.50700000      28.75300000 
H      61.85200000      21.22400000      27.72500000 
H      62.53300000      22.46300000      28.76000000 
H      63.43100000      19.73100000      30.81100000 
H      64.01300000      20.96000000      29.78100000 
N      59.06900000      22.75000000      30.78700000 
C      58.53500000      23.49600000      31.89100000 
C      58.20000000      22.51000000      32.96900000 
O      57.64600000      21.43600000      32.68800000 
C      57.27500000      24.25200000      31.42300000 
C      56.32800000      23.33500000      30.71800000 
C      56.58600000      22.89400000      29.42900000 
C      55.23800000      22.80300000      31.38000000 
C      55.83800000      21.89300000      28.83500000 
C      54.47000000      21.82500000      30.79400000 
C      54.77900000      21.34600000      29.53600000 
O      53.96500000      20.38200000      29.04900000 
H      58.46500000      22.06700000      30.40900000 
H      59.27700000      24.19300000      32.22900000 
H      56.79400000      24.69800000      32.27900000 
H      57.60100000      25.05000000      30.77400000 
H      57.37800000      23.33700000      28.87300000 
H      55.00200000      23.13800000      32.37000000 
H      56.04900000      21.59300000      27.83300000 
H      53.62500000      21.41700000      31.29300000 
H      54.13000000      20.06200000      28.13700000 
N      41.87800000      28.06400000      24.86100000 
C      43.30800000      28.23400000      25.03400000 
C      43.44700000      29.28300000      26.12200000 
O      43.36000000      30.49200000      25.85800000 
C      44.01600000      28.63400000      23.75500000 
C      45.37700000      27.96300000      23.64000000 
C      45.21000000      26.51100000      23.21200000 
C      46.26000000      28.71400000      22.65900000 
H      41.27100000      28.66300000      25.36300000 
H      43.70200000      27.30100000      25.39000000 
H      43.41000000      28.33700000      22.91600000 
H      44.11100000      29.70600000      23.73000000 
H      45.84700000      27.98600000      24.61200000 
H      46.16100000      26.00900000      23.14100000 
H      44.58300000      25.97100000      23.90200000 
H      44.73000000      26.47200000      22.24500000 
H      47.16500000      28.16500000      22.45100000 
H      45.73600000      28.86300000      21.72300000 
H      46.53200000      29.68300000      23.05200000 
N      45.59800000      30.83100000      29.45600000 
C      47.01500000      30.94300000      29.72900000 
C      47.29000000      30.55500000      31.14900000 
O      46.72500000      31.12200000      32.10100000 
C      47.60300000      32.31800000      29.42000000 
C      46.85000000      33.47100000      30.05400000 
C      49.05200000      32.30700000      29.87300000 
H      44.97100000      31.54600000      29.73800000 
H      47.49700000      30.23100000      29.09000000 
H      47.57000000      32.42400000      28.34400000 
H      47.38000000      34.39500000      29.85900000 
H      45.85400000      33.57400000      29.65100000 
H      46.78300000      33.33600000      31.12100000 
H      49.58300000      33.17100000      29.50100000 
H      49.10600000      32.33000000      30.95200000 
H      49.56600000      31.42300000      29.53100000 
N      48.38600000      18.00100000      17.25200000 
C      49.43000000      18.90600000      16.84000000 
C      48.83400000      20.28900000      16.85100000 
O      47.65800000      20.45300000      17.20400000 
C      49.94700000      18.51300000      15.45900000 
C      50.92400000      17.37900000      15.53400000 
O      51.98200000      17.50000000      16.16400000 
N      50.62900000      16.28100000      14.84300000 
H      47.45300000      18.31600000      17.16200000 
H      50.24300000      18.86100000      17.54500000 
H      49.10800000      18.27800000      14.82600000 
H      50.49000000      19.32500000      15.01300000 
H      51.25000000      15.51100000      14.85100000 
H      49.78300000      16.19200000      14.33200000 
N      49.55700000      21.33400000      16.44700000 
C      48.97700000      22.65500000      16.53300000 
C      47.82500000      22.87300000      15.61500000 
O      47.19000000      23.94700000      15.69200000 
C      50.12700000      23.59500000      16.18900000 
C      51.36300000      22.79100000      16.54500000 
C      50.98700000      21.37800000      16.14300000 
H      48.61900000      22.83000000      17.53300000 
H      50.12200000      23.81800000      15.13300000 
H      50.05200000      24.51500000      16.73700000 
H      52.23200000      23.14600000      16.02500000 
H      51.55000000      22.83500000      17.60300000 
H      51.14700000      21.23700000      15.08800000 
H      51.51900000      20.61900000      16.68400000 
N      44.89600000      24.43200000      17.07800000 
C      45.25800000      25.61100000      17.81300000 
C      45.38400000      26.80300000      16.91600000 
O      45.13000000      27.94500000      17.33600000 
C      46.59400000      25.41500000      18.54000000 
C      46.80400000      26.52400000      19.55600000 
C      46.61000000      24.07400000      19.23600000 
H      45.59000000      23.98400000      16.52100000 
H      44.49100000      25.81500000      18.53400000 
H      47.37900000      25.44800000      17.81000000 
H      47.76600000      26.41200000      20.03300000 
H      46.77100000      27.49600000      19.09900000 
H      46.03700000      26.46800000      20.31500000 
H      47.47400000      24.01300000      19.87500000 
H      45.72500000      23.97900000      19.84700000 
H      46.63500000      23.24900000      18.54400000 
N      45.84400000      26.56700000      15.69700000 
C      46.12900000      27.59300000      14.74600000 
C      45.70700000      27.11000000      13.39000000 
O      45.59800000      25.89900000      13.15600000 
C      47.62600000      27.90200000      14.69200000 
C      48.19800000      28.16500000      16.04500000 
C      47.88300000      29.32000000      16.73400000 
C      49.03400000      27.24600000      16.63500000 
C      48.37200000      29.53600000      18.00500000 
C      49.54800000      27.45900000      17.90100000 
C      49.21400000      28.60600000      18.58800000 
H      46.08500000      25.63900000      15.42900000 
H      45.58400000      28.47900000      15.02200000 
H      48.12700000      27.05500000      14.24600000 
H      47.76800000      28.74700000      14.04700000 
H      47.23400000      30.03700000      16.28500000 
H      49.28300000      26.35600000      16.10200000 
H      48.08300000      30.41100000      18.54100000 
H      50.19500000      26.73500000      18.33700000 
H      49.58700000      28.76500000      19.57700000 
N      53.90600000      32.35200000      14.42500000 
C      54.52900000      31.93500000      15.65700000 
C      55.05100000      33.15000000      16.37700000 
O      55.01700000      33.23600000      17.61600000 
C      55.64200000      30.90600000      15.36900000 
C      56.50700000      31.24800000      14.16400000 
C      56.52900000      30.71800000      16.59000000 
H      54.17800000      31.93100000      13.57300000 
H      53.80700000      31.48600000      16.31800000 
H      55.13300000      29.97500000      15.16700000 
H      57.31100000      30.52800000      14.09500000 
H      55.97000000      31.21100000      13.22900000 
H      56.95000000      32.22500000      14.26600000 
H      57.17100000      29.86200000      16.44300000 
H      57.15900000      31.58400000      16.73400000 
H      55.95400000      30.56600000      17.49000000 
N      52.27000000      35.62400000      17.77400000 
C      51.66500000      34.92800000      18.88800000 
C      52.54000000      35.04300000      20.09900000 
O      52.06700000      35.37800000      21.20100000 
C      51.50200000      33.45900000      18.51400000 
C      51.47300000      32.48200000      19.69500000 
C      50.06400000      32.09600000      20.10800000 
C      52.29000000      31.25600000      19.32800000 
H      52.45200000      35.12800000      16.93500000 
H      50.72900000      35.38600000      19.15500000 
H      50.61000000      33.34800000      17.91300000 
H      52.33600000      33.20500000      17.88400000 
H      51.94700000      32.93300000      20.54900000 
H      50.09400000      31.34000000      20.87900000 
H      49.51300000      32.94600000      20.49000000 
H      49.53000000      31.69400000      19.26200000 
H      52.31100000      30.54500000      20.13600000 
H      51.87200000      30.77500000      18.45300000 
H      53.30500000      31.55000000      19.09400000 
N      53.81700000      34.70600000      19.97500000 
C      54.65300000      34.69800000      21.15300000 
C      54.67400000      36.06500000      21.77000000 
O      54.80700000      36.21400000      22.99800000 
C      56.07000000      34.21400000      20.84100000 
C      57.04500000      35.32100000      20.49200000 
C      58.42400000      34.77700000      20.14700000 
C      59.05500000      35.63900000      19.08300000 
N      60.45400000      35.19400000      18.81200000 
H      54.19500000      34.41900000      19.09800000 
H      54.20900000      34.05300000      21.88600000 
H      56.43400000      33.66700000      21.69600000 
H      56.01100000      33.51900000      20.01700000 
H      56.65700000      35.87600000      19.66200000 
H      57.13200000      36.00700000      21.32400000 
H      59.05700000      34.75100000      21.02400000 
H      58.34300000      33.76500000      19.77600000 
H      58.51800000      35.56200000      18.15800000 
H      59.10200000      36.67300000      19.37800000 
H      60.84500000      35.67800000      18.02100000 
H      61.04600000      35.37000000      19.60700000 
H      60.48300000      34.20800000      18.61500000 
N      52.89300000      34.37200000      25.31800000 
C      53.16200000      32.95100000      25.23600000 
C      54.64800000      32.79100000      25.42400000 
O      55.44500000      33.06600000      24.51700000 
C      52.65000000      32.39200000      23.91600000 
C      51.13900000      32.57400000      23.80700000 
C      53.05100000      30.93500000      23.75300000 
C      50.32600000      31.67400000      24.72400000 
H      53.32500000      34.95500000      24.63700000 
H      52.64900000      32.48800000      26.05100000 
H      53.10100000      32.96900000      23.12900000 
H      50.89500000      33.60900000      23.99700000 
H      50.85300000      32.37300000      22.78300000 
H      52.58100000      30.51600000      22.87500000 
H      54.11900000      30.83400000      23.64200000 
H      52.73800000      30.35500000      24.60600000 
H      49.28900000      31.98300000      24.73800000 
H      50.35900000      30.64900000      24.38400000 
H      50.68800000      31.69500000      25.74200000 
N      55.02900000      32.38800000      26.63500000 
C      56.39600000      32.28700000      27.04500000 
C      56.58700000      30.99100000      27.77500000 
O      55.62400000      30.28800000      28.10800000 
C      56.78900000      33.41500000      27.98000000 
O      56.60300000      34.63600000      27.27600000 
H      54.34100000      32.12300000      27.29800000 
H      57.01700000      32.31500000      26.17100000 
H      56.16400000      33.37600000      28.86000000 
H      57.81900000      33.30000000      28.27800000 
H      56.78600000      35.39600000      27.82000000 
N      57.82500000      30.66300000      28.13000000 
C      58.05900000      29.39900000      28.78700000 
C      57.31600000      29.31100000      30.09000000 
O      56.93400000      28.20500000      30.49900000 
C      59.54800000      29.16300000      28.96600000 
H      58.60100000      31.20700000      27.84200000 
H      57.65000000      28.61400000      28.18100000 
H      59.71100000      28.21200000      29.45000000 
H      60.02300000      29.13800000      27.99600000 
H      60.00400000      29.94200000      29.55800000 
N      52.04500000      28.49200000      29.56500000 
C      51.52200000      27.82400000      28.39100000 
C      50.02100000      27.89300000      28.19800000 
O      49.27500000      28.65400000      28.82500000 
C      52.04600000      26.40800000      28.53400000 
C      52.25400000      26.21500000      30.02900000 
C      52.66400000      27.57500000      30.53300000 
H      51.92700000      28.29600000      27.51000000 
H      51.36500000      25.68800000      28.13200000 
H      52.97400000      26.34300000      27.99700000 
H      51.33200000      25.88900000      30.47800000 
H      53.01300000      25.48900000      30.25200000 
H      52.33100000      27.76900000      31.53100000 
H      53.73800000      27.68600000      30.49400000 
N      49.58100000      27.10400000      27.20600000 
C      48.28900000      27.18800000      26.57900000 
C      47.45400000      25.99300000      26.97100000 
O      47.91500000      24.84000000      26.90900000 
C      48.41800000      27.25100000      25.04200000 
C      49.72300000      26.71000000      24.46000000 
C      49.50900000      26.30500000      23.01400000 
C      50.84800000      27.73600000      24.51600000 
H      50.22400000      26.48600000      26.78300000 
H      47.81100000      28.07900000      26.94300000 
H      47.60100000      26.69500000      24.61700000 
H      48.29700000      28.27600000      24.72400000 
H      50.00400000      25.81400000      24.99100000 
H      50.44700000      25.98500000      22.57600000 
H      48.81000000      25.48900000      22.94300000 
H      49.13800000      27.14200000      22.43700000 
H      51.80300000      27.26300000      24.31700000 
H      50.68400000      28.48500000      23.75300000 
H      50.91200000      28.24400000      25.46000000 
N      46.20500000      26.24300000      27.37400000 
C      45.39100000      25.27000000      28.08400000 
C      44.03000000      25.20400000      27.43900000 
O      43.25600000      26.17600000      27.53500000 
C      45.32200000      25.70700000      29.54000000 
C      44.36900000      24.86400000      30.35800000 
C      46.72500000      25.70300000      30.12800000 
H      45.95500000      27.19600000      27.53700000 
H      45.86700000      24.31900000      28.00500000 
H      44.95500000      26.71800000      29.53200000 
H      44.37700000      25.19800000      31.38400000 
H      43.36000000      24.95800000      29.98300000 
H      44.64100000      23.82200000      30.33800000 
H      46.68100000      25.76600000      31.20200000 
H      47.23600000      24.78800000      29.88000000 
H      47.30800000      26.53600000      29.76900000 
N      46.05600000      20.73200000      28.59700000 
C      47.04300000      21.66400000      28.11700000 
C      47.43200000      21.27600000      26.72400000 
O      47.78700000      20.11200000      26.45800000 
C      48.27400000      21.69600000      28.99900000 
C      48.07000000      22.37500000      30.32300000 
C      46.91500000      22.20700000      31.06900000 
C      49.06100000      23.19800000      30.83600000 
C      46.75100000      22.84000000      32.28300000 
C      48.92000000      23.78800000      32.07500000 
C      47.76000000      23.62400000      32.80100000 
H      46.37300000      19.85700000      28.96800000 
H      46.58900000      22.62500000      28.09800000 
H      48.57900000      20.67300000      29.12100000 
H      49.06200000      22.20200000      28.46100000 
H      46.12800000      21.60000000      30.69900000 
H      49.93300000      23.40200000      30.26300000 
H      45.82800000      22.72200000      32.80500000 
H      49.71000000      24.38600000      32.46300000 
H      47.63900000      24.11300000      33.74400000 
N      47.37200000      22.23600000      25.82200000 
C      47.68900000      21.97600000      24.44400000 
C      49.15300000      22.23200000      24.25600000 
O      49.61700000      23.37800000      24.19700000 
C      46.84400000      22.81900000      23.52400000 
C      46.81700000      22.26400000      22.11000000 
C      48.20500000      22.17100000      21.49300000 
C      46.13900000      20.90800000      22.05500000 
H      47.22600000      23.17900000      26.11000000 
H      47.48600000      20.93700000      24.27300000 
H      45.83700000      22.82900000      23.91400000 
H      47.21200000      23.83300000      23.52900000 
H      46.22500000      22.94400000      21.52000000 
H      48.13900000      21.88000000      20.45500000 
H      48.72900000      23.11300000      21.55800000 
H      48.79300000      21.42100000      22.00100000 
H      46.03900000      20.61100000      21.03200000 
H      46.72000000      20.14400000      22.55600000 
H      45.15600000      20.93700000      22.50300000 
N      49.91900000      21.15100000      24.17400000 
C      51.33100000      21.22700000      23.86900000 
C      51.76400000      19.81600000      23.63500000 
O      52.13800000      19.40100000      22.53800000 
C      52.13400000      21.87700000      24.99900000 
C      52.71900000      23.22300000      24.61900000 
C      53.29900000      23.94300000      25.81200000 
N      52.38600000      23.82700000      26.93000000 
C      52.81200000      23.69000000      28.16800000 
N      54.00400000      24.13100000      28.49500000 
N      52.03200000      23.12200000      29.07100000 
H      49.48400000      20.26500000      24.25700000 
H      51.45600000      21.77300000      22.95300000 
H      51.46100000      21.97900000      25.82900000 
H      52.92700000      21.23000000      25.33300000 
H      53.52400000      23.08800000      23.92200000 
H      51.95800000      23.82500000      24.15500000 
H      54.22100000      23.47000000      26.10400000 
H      53.50800000      24.97900000      25.58800000 
H      51.41200000      23.79200000      26.74800000 
H      54.53300000      24.68300000      27.86300000 
H      54.41100000      23.92600000      29.37100000 
H      51.25900000      22.57700000      28.77700000 
H      52.30600000      23.07000000      30.02300000 
N      51.67200000      19.04100000      24.72800000 
C      52.23300000      17.72600000      24.80300000 
C      51.19900000      16.67100000      25.08100000 
O      51.53500000      15.48400000      25.19700000 
C      53.31100000      17.70800000      25.87700000 
C      54.22400000      18.89200000      25.69800000 
O      54.73400000      19.08200000      24.57100000 
O      54.40500000      19.65200000      26.69700000 
H      51.45000000      19.48800000      25.58900000 
H      52.67900000      17.50800000      23.84800000 
H      52.86400000      17.75600000      26.84600000 
H      53.87900000      16.79500000      25.80400000 
H      53.10062245      26.55007099      10.10137015 
H      58.42302278      22.71589401      33.92182134 
H      41.66309984      28.18876287      23.99598431 
H      43.61123094      29.00348739      27.06799202 
H      45.46693308      30.77242453      28.56752356 
H      47.94169460      29.82371050      31.35027052 
H      48.43256257      17.24639170      16.76373957 
H      47.57252574      22.16714531      14.95316475 
H      44.61665681      23.79551511      17.64971179 
H      45.51034662      27.76847517      12.66354429 
H      53.01960873      32.20306706      14.47114642 
H      55.43649045      33.91219141      15.85694100 
H      51.73854879      36.30472032      17.52066337 
H      54.58018752      36.87582331      21.19227622 
H      52.00872411      34.51581193      25.23212634 
H      57.13383785      30.14004178      30.61868390 
H      52.62473270      29.13259156      29.31290389 
H      43.75332675      24.38392332      26.93807470 
H      45.58508931      21.11020825      29.26423432 
H      50.23648441      16.92618029      25.17290624 
