 222 
 
N                57.2333484092       54.5353623802       15.8579216818
C                56.6731011255       55.1027376801       14.6417235876
C                57.6979359976       55.3697474640       13.5300443356
O                57.4281695148       55.0173502952       12.3842728730
C                55.9467439390       56.3909333860       15.0548562008
C                56.3088501134       56.6409682801       16.5239802431
C                57.1388629918       55.4399803100       16.9904353892
H                55.9894009463       54.3697897493       14.1939716930
H                56.2764392106       57.2071668192       14.4150704702
H                54.8709254694       56.2889664626       14.9276055855
H                56.9211245777       57.5357550090       16.6164118629
H                55.4166621357       56.7798081929       17.1290644696
H                58.1203880527       55.7920833157       17.2791948836
H                56.7217103989       54.9342581134       17.8593907928
N                58.8243016870       56.0491798693       13.7991270299
C                59.7652485652       56.2641522437       12.7141593823
C                60.2164873962       54.9228190136       12.1359128329
O                60.3951074819       54.7685958764       10.9365327846
C                60.9462346519       57.0405985146       13.3042188191
C                60.8078638216       56.8928243639       14.8194325990
C                59.3760942001       56.4235599227       15.0857789942
H                59.2983420459       56.8149339831       11.8922263933
H                61.8856403897       56.6179559559       12.9440851558
H                60.9201348831       58.0876780760       13.0052238923
H                61.5177771049       56.1389231014       15.1578702296
H                61.0081512756       57.8316188544       15.3326599581
H                59.3950561900       55.5629195286       15.7489580419
H                58.7798175190       57.2091235152       15.5521110518
N                48.5749463977       62.5987003544       18.3457673954
C                49.3829193469       62.9216963165       17.1875296818
C                49.2703205789       61.7825625580       16.1708092995
O                48.9676754697       62.0067553138       15.0022303894
C                50.8117807613       63.1688853410       17.6607384252
C                51.7508265538       63.7944088777       16.6233407118
C                52.7361019864       64.6996862752       17.3601141724
C                52.4642041225       62.7165702140       15.8132213308
H                49.0829970474       62.4428521601       19.2154909354
H                48.9576123135       63.8108669714       16.7025253741
H                50.7305468494       63.8355768751       18.5193240337
H                51.2292501496       62.2179219872       17.9973662185
H                51.1503004505       64.3962383437       15.9346226840
H                53.5467418378       65.0065309954       16.7108404833
H                52.2114464062       65.5791840301       17.7182159954
H                53.1532095062       64.1724906723       18.2100490979
H                53.3050611925       63.1331722432       15.2674796705
H                52.8218816506       61.9220035292       16.4614047743
H                51.7673465716       62.2805847699       15.1032978211
N                56.1831498102       61.4601339721        9.0370619056
C                57.5661689475       61.3784767860        9.6200070340
C                58.0905333294       62.7150554487       10.1524676028
O                58.5211762851       62.7533117978       11.2933756977
C                58.5580773267       60.8199725187        8.6084637501
H                56.2163748151       61.1875061508        8.0395913322
H                55.5513006225       60.7952194798        9.5137763480
H                55.7804864350       62.4052857326        9.1351789250
H                57.5392070567       60.7090993091       10.4862782495
H                59.5449521416       60.8063364436        9.0687909222
H                58.2918367499       59.8001561589        8.3451104294
H                58.6327315378       61.4252768530        7.7088398919
N                57.9684501833       63.8221472071        9.4038677146
C                58.6050101546       65.0419128037        9.9056175236
C                58.1454633880       65.2918068186       11.3436817635
O                58.9151906272       65.6104490286       12.2351900586
C                58.2253764201       66.2625990247        9.0644247434
C                58.7451344904       66.1880825858        7.6366987819
S                58.3842881311       67.7314011414        6.7179654864
C                56.5639405958       67.6295300362        6.7083152255
H                57.8614123242       63.7590390144        8.3989333372
H                59.6949712249       64.9090051328        9.9313345048
H                57.1413994146       66.3774024717        9.0610218218
H                58.6580997687       67.1499592322        9.5294719528
H                59.8296248858       66.0935968547        7.6257297305
H                58.3075447861       65.3731248389        7.0621966197
H                56.2228996720       68.3914466265        6.0164652299
H                56.2590266007       66.6496434764        6.3556374800
H                56.1764248783       67.8425120759        7.6989316624
N                56.8212539359       65.1935113764       11.5416807962
C                56.2844508147       65.4208098254       12.8698519445
C                56.8022151552       64.3643473914       13.8450107729
O                57.0507381676       64.6723978433       15.0005664788
C                54.7469514023       65.4360406088       12.9047056471
C                54.2572849510       65.5882990610       14.3412800718
C                54.1920679562       66.5909848010       12.0783188920
H                56.1877207928       65.0578278780       10.7671463128
H                56.6531047032       66.3881662871       13.2368931888
H                54.3957697652       64.4726146709       12.5257323556
H                53.1716830320       65.5624884867       14.3598928501
H                54.6435993498       64.7879866932       14.9646327729
H                54.5805053935       66.5330721569       14.7720074443
H                53.1060894254       66.5532642841       12.0751187556
H                54.4890321179       67.5338401028       12.5306967242
H                54.5426662916       66.5685452877       11.0525136759
N                56.8786715817       63.0915486546       13.4266538423
C                57.4698443543       62.0882290406       14.2933258532
C                58.9174012953       62.4195223755       14.6747313050
O                59.3001102585       62.1823091534       15.8168824338
C                57.4413584887       60.7016521466       13.6626141857
H                56.8727937991       62.8694090383       12.4436328086
H                56.9139849569       62.0839148637       15.2408150682
H                57.8325618544       59.9862549258       14.3820019774
H                56.4305674318       60.4059677197       13.3965068669
H                58.0909035006       60.6862970135       12.7914626951
N                59.6966386553       62.9867238330       13.7572041210
C                61.0803998157       63.3244926477       14.0380250015
C                61.1110727652       64.5128516316       14.9956234150
O                61.9626529577       64.6448324874       15.8697562565
C                61.7827969000       63.6528363001       12.7255145809
C                61.7737428904       62.4144351069       11.7452951065
O                61.8058884593       61.2859869674       12.2625534808
O                61.7229223264       62.6901211152       10.5324815138
H                59.4438330722       62.9672798284       12.7782318985
H                61.5882489138       62.4761699354       14.5180950508
H                61.2912204192       64.4894791125       12.2282737221
H                62.8289137557       63.9081157262       12.9037775445
N                60.1303166409       65.3959917172       14.7851067260
C                59.9109552346       66.5774507003       15.5897862639
C                59.4494953784       66.2362376476       17.0077726071
O                59.8147401064       66.9401727548       17.9435132266
C                58.8129028774       67.4379509908       14.9441800995
C                58.6244287757       68.7999724433       15.6200658228
C                59.5491988292       69.8972597386       15.0883607476
N                60.9479673314       69.6430774036       15.3705226239
C                61.7892577947       68.9874291469       14.5796815301
N                61.4825144358       68.6502928470       13.3325703540
N                62.9982212415       68.6752120678       15.0482364245
H                59.5525866354       65.2976004367       13.9551731318
H                60.8591999286       67.1106230863       15.6986703137
H                59.0386912717       67.5505508242       13.8841159381
H                57.8869015240       66.8673837232       15.0326289462
H                57.6036308033       69.1404675101       15.4534233720
H                58.7656142696       68.6854362560       16.6944793035
H                59.4104773056       70.0067465886       14.0139222061
H                59.2851216399       70.8443361317       15.5592630899
H                61.2365607817       69.8032597927       16.3280593680
H                60.6021436970       68.8965632533       12.9117401469
H                62.1645129929       68.1755846812       12.7641696222
H                63.2458322470       68.8799931133       16.0023299090
H                63.6539185479       68.1561022915       14.4852835124
N                58.5916484576       65.2293726673       17.0848368900
C                57.9829436535       64.6971253851       18.2809925075
C                58.9626517357       63.7768974160       18.9862655799
O                58.9031692573       63.5915892886       20.1930645926
C                56.7185241618       63.9154532319       17.9135176263
C                56.0679533590       63.1150959073       19.0491122944
C                55.3269757385       64.0092197463       20.0356675704
C                55.1121042618       62.1019063071       18.4243880497
H                58.3215456495       64.7868604568       16.2120750656
H                57.7182903253       65.5029860755       18.9750800385
H                55.9989254965       64.6283209436       17.5096537858
H                56.9958996728       63.2182971672       17.1237203298
H                56.8358242318       62.5678838478       19.6027701800
H                54.6785204831       63.4052390675       20.6657095093
H                56.0295684580       64.5346783117       20.6716178759
H                54.7137719518       64.7382767585       19.5157945017
H                54.4988002314       61.6243526739       19.1843231998
H                54.4470052453       62.5922145287       17.7237075854
H                55.6740038988       61.3464206227       17.8831943210
N                59.8819119593       63.2076303942       18.2038547838
C                60.9166942902       62.3545459060       18.7584554988
C                61.9547952642       63.2829437194       19.3704208671
O                62.3602266614       63.1090304253       20.5145165544
C                61.4958826558       61.4395986384       17.6872630538
C                62.3938733276       60.3272697528       18.1660906555
C                62.9719055258       59.5130165610       17.1951373911
C                62.6615546622       60.0543926429       19.4997935634
C                63.8111283994       58.4744477874       17.5448526961
C                63.4839360771       58.9939841343       19.8516334298
C                64.0639082510       58.2024751713       18.8791756824
H                59.7073050459       63.1006599714       17.2090376244
H                60.5009798485       61.7475034448       19.5721609168
H                60.6480448244       60.9814600383       17.1718172431
H                62.0386990324       62.0458922538       16.9554717094
H                62.7570510953       59.6959670795       16.1504894275
H                62.2412317651       60.6723494016       20.2770973027
H                64.2698759956       57.8761399630       16.7742376099
H                63.6810452770       58.7866900506       20.8918635518
H                64.7030220384       57.3749869214       19.1488714709
N                62.3146144317       64.3347570536       18.6355809964
C                63.1587325153       65.3504059328       19.2348926701
C                62.3993329792       65.9988648699       20.3958040853
O                62.9210111589       66.0598035616       21.5047038137
C                63.6517289166       66.4079339380       18.2459140652
C                65.0092922277       66.1160496859       17.5716886353
C                65.6099951572       67.4341025575       17.0782755924
C                66.0081739999       65.4406641948       18.5075183015
H                62.1144568071       64.3784613286       17.6398793520
H                64.0103601850       64.8574654046       19.7157609740
H                62.8917162678       66.5258921580       17.4737652141
H                63.7539646837       67.3424027436       18.8016611199
H                64.8412191728       65.4516307246       16.7189693808
H                66.6193185984       67.2730117645       16.7103789538
H                65.0253062266       67.8501110032       16.2686853938
H                65.6608337934       68.1548135777       17.8918728037
H                66.9988907861       65.4475978770       18.0611706897
H                66.0659292516       65.9673625268       19.4581273803
H                65.7406886260       64.4001768497       18.6782476234
N                61.1853063258       66.4943122197       20.1736538079
C                60.4507435310       67.1381814170       21.2516062275
C                60.3678110540       66.1870972783       22.4365459898
O                60.7039998938       66.5668174562       23.5517942304
C                59.0638300887       67.6040283915       20.7799000580
C                58.0402112133       67.6852265761       21.8802294829
C                57.7575767590       68.8745335837       22.5402932546
C                57.3039042427       66.5551840034       22.2057363010
C                56.7507452842       68.9323613590       23.4843042803
C                56.2932090059       66.5977318881       23.1444994484
C                56.0049786169       67.7958012064       23.7879903264
O                55.0106495855       67.9210021502       24.7078243760
H                60.7691814931       66.5621539870       19.2460300433
H                61.0207988912       68.0003779682       21.6239626604
H                59.1682575546       68.5790974068       20.3070570187
H                58.7088171004       66.8979838950       20.0314227563
H                58.3165169339       69.7688080796       22.3102180786
H                57.5230779236       65.6239274946       21.7069032137
H                56.5055313433       69.8539474150       23.9892860506
H                55.7197223473       65.7049463345       23.3449777060
H                54.5449423495       67.0817942471       24.8221127668
H                56.8521570168       53.7363490442       16.0200044119
H                60.3730450513       54.1438497397       12.7431167286
H                48.0011822216       63.2725594720       18.5091949325
H                49.4442723641       60.8397068470       16.4549991740
H                60.0388586050       65.2519536242       22.3050293276
