 210 
 
N               134.6223250498       65.1779143279      133.7122542745
C               135.3752519752       64.2268255868      132.9212893046
C               134.9866024531       64.3095384074      131.4419231609
O               135.8283944044       64.2271895624      130.5474756382
C               135.0852889297       62.7925243875      133.3615436183
C               135.4898505824       62.4679726964      134.7939608506
O               136.0353338270       63.2408411327      135.5580974238
N               135.1490126540       61.2149108080      135.1547338283
H               134.2573642873       64.8546114158      134.6044705639
H               136.4478785958       64.4613803546      132.9998829083
H               134.0151474953       62.6055686813      133.2406242471
H               135.6233483548       62.1201399085      132.6904814554
H               135.4412035963       60.8702693990      136.0551312020
H               134.7368932933       60.5786333476      134.4925449385
N               133.6802245086       64.3692310291      131.2068191868
C               133.1266644500       64.4188280475      129.8693694440
C               133.6555310568       65.6536811148      129.1452667725
O               134.0201469740       65.6093091703      127.9738798158
C               131.6076143948       64.4839178944      129.9410135226
H               133.0132966236       64.3334570320      131.9765209511
H               133.4515913246       63.5411873026      129.2942621122
H               131.1967967388       64.4583155078      128.9364007926
H               131.2297007644       63.6372454210      130.5071242046
H               131.3037135562       65.4112977226      130.4200818141
N               136.9905490787       65.4024671197      128.2578146544
C               136.9183404955       64.6492143279      127.0276651901
C               136.7103669687       65.5654431587      125.8220384932
O               137.4457876104       65.5179866798      124.8396295970
H               136.4241664835       65.0895135329      129.0405516459
H               137.8410151991       64.0825679273      126.8637259138
H               136.0648187383       63.9748439670      127.1003834655
N               140.5589288947       55.9718986668      125.0290535256
C               140.2539062347       56.4369332624      126.3695636900
C               138.8002568328       56.0655038409      126.6826064495
O               137.8843732198       56.5275080168      126.0094345484
C               140.3898906421       57.9584640669      126.4530245031
C               141.8259247430       58.4874495145      126.5187633395
C               142.6627976091       58.0428867811      125.3221177237
C               141.7871784708       60.0137252368      126.5879649567
H               140.4063296579       56.6267153087      124.2693914775
H               140.9267279494       55.9218642919      127.0622798253
H               139.8791913094       58.3758112419      125.5822776083
H               139.8490805348       58.2868536017      127.3424609003
H               142.2908072996       58.1010040096      127.4307044625
H               143.6340281914       58.5297066887      125.3527077485
H               142.8098896468       56.9658356584      125.3254754915
H               142.1717828961       58.3106988948      124.3878858193
H               142.7939232575       60.4104762257      126.6811104990
H               141.3403426931       60.4107059831      125.6787882267
H               141.2003892521       60.3440403420      127.4403798267
N               138.6084918751       55.2819739872      127.7472881968
C               137.3037888399       54.7816513882      128.1389509512
C               136.7714439761       55.7129681772      129.2296243941
O               137.0628423196       55.5616806668      130.4135401576
C               137.4698586107       53.3446039230      128.6684101937
O               138.4457627595       53.3180703092      129.6807946684
C               137.8808446173       52.3936031604      127.5512758762
H               139.3845842955       54.8347716114      128.2189650930
H               136.6309414098       54.7902816051      127.2770885043
H               136.4945965573       53.0260526917      129.0735467423
H               138.1732280413       53.9797700404      130.3427611704
H               138.0139869030       51.3959583196      127.9573790599
H               137.1096969214       52.3696607467      126.7844399224
H               138.8163150897       52.7155175568      127.0980418800
N               136.0501693632       56.7508168899      128.8026675290
C               135.6298509062       57.8016460364      129.7135576195
C               134.2656860892       57.4430752407      130.3113438414
O               133.2154907361       57.5557091816      129.6920348017
C               135.5374787067       59.1667639050      129.0161426618
C               136.8383955581       59.5371953361      128.2943285663
C               135.1233674746       60.2276163225      130.0369238937
C               138.0432837457       59.7436769121      129.2050102489
H               135.7251958448       56.8165486215      127.8448572580
H               136.3715186807       57.8275605550      130.5194445918
H               134.7559582962       59.0746786724      128.2556152180
H               137.0636600883       58.7594714464      127.5602697747
H               136.6587570514       60.4607951567      127.7416405100
H               135.1276745022       61.2118622893      129.5752766516
H               134.1251347910       60.0224450008      130.4156617807
H               135.8107290152       60.2361426030      130.8788227776
H               138.9034939515       60.0287111483      128.6043614500
H               137.8572356800       60.5387701174      129.9207970564
H               138.2923550838       58.8305358502      129.7410958911
N               134.3011602257       57.0203164879      131.5793203032
C               133.0879901425       56.6942875776      132.3092638292
C               132.2109885436       57.9596954011      132.3797030725
O               132.6428003254       58.9963447583      132.8634027994
C               133.4519316117       56.2299137673      133.7174323511
C               132.2220753955       55.7757655042      134.4948946747
C               131.5997374403       54.5015423785      133.9411147501
O               132.1944396537       53.7083201590      133.2210999035
N               130.3469418159       54.3103727885      134.3644370316
H               135.1874457832       56.8414043206      132.0269253900
H               132.5430383748       55.9000768020      131.7855177596
H               134.1467010495       55.3914838645      133.6386092036
H               133.9296229338       57.0575963927      134.2431521794
H               132.5066601667       55.5544563975      135.5258870601
H               131.4603529523       56.5559598897      134.5205299501
H               129.8861102417       55.0171087980      134.9216851391
H               129.8365822981       53.4724860763      134.1160301784
N               130.9746914862       57.8060715139      131.8987620091
C               129.9834929496       58.8538343622      131.9141821531
C               128.7473288591       58.5210404979      132.7531072877
O               128.0788090350       59.4195031222      133.2406637738
C               129.5228494543       59.2798914924      130.4997412407
C               130.7019676775       59.8360209770      129.7092189795
C               128.8532561448       58.1425660352      129.7331957225
H               130.7116577504       56.9179688749      131.4901516309
H               130.4600174910       59.7213416824      132.3864873706
H               128.7860400181       60.0751171993      130.6561900151
H               130.3658720341       60.1488345830      128.7254799183
H               131.1409609341       60.6861944832      130.2258828094
H               131.4671880829       59.0723220840      129.5858696452
H               128.4880985378       58.5114073512      128.7784416779
H               129.5563943875       57.3372639356      129.5323398857
H               128.0124836815       57.7348825587      130.2889280534
N               130.4177893854       54.2351264909      129.2036267062
C               131.4861748999       55.1112998901      128.7983437523
C               131.1610175833       55.7302203097      127.4339204365
O               130.3756611508       55.2097729286      126.6585983578
C               132.8383858732       54.3551299588      128.6413346324
O               132.8353030915       53.6329974751      127.4281782716
C               133.0752951305       53.4016988300      129.8155723790
H               130.2329656907       53.4510198361      128.5866225657
H               131.6108177807       55.8918344696      129.5522134883
H               133.6279430279       55.1193861815      128.6198778152
H               133.6573549442       53.8162149281      126.9219473252
H               134.1050777037       53.0544120877      129.8007250074
H               132.8748968604       53.8763762062      130.7720323307
H               132.4200781342       52.5407082238      129.7067893675
N               131.7997228189       56.8860510841      127.1807307190
C               132.0527068909       57.3103240325      125.8193089424
C               133.5643869738       57.2159746691      125.6347386755
O               134.3298090697       57.5836802100      126.5164775043
C               131.4989102658       58.7257354919      125.5667077886
C               129.9687956971       58.6363197190      125.5621663634
C               132.0546155300       59.2974693699      124.2659174756
C               129.2830310352       59.9936851328      125.6138118644
H               132.4909977472       57.2122328707      127.8486475989
H               131.5564821967       56.5907857121      125.1588130076
H               131.8252529327       59.3599890898      126.3953642532
H               129.6552387439       58.0906464110      124.6711251341
H               129.6616426587       58.0421529319      126.4247760023
H               131.6463168742       60.2874951464      124.0839279812
H               133.1384171030       59.3821283075      124.3176766262
H               131.8181102850       58.6461351854      123.4270287034
H               128.2046357694       59.8647006459      125.5798700712
H               129.5380922767       60.5076248902      126.5356703903
H               129.5802237432       60.6189537948      124.7776864005
N               133.9756405637       56.6992104963      124.4729915559
C               135.3723360933       56.4546126630      124.2135866979
C               135.8851661296       57.4480569208      123.1779892155
O               135.1935179034       57.8381813911      122.2468882517
C               135.6260682367       55.0247538093      123.7577692658
C               135.3884669551       53.9889567460      124.9026163163
O               134.9888702114       54.4344955747      126.0027668417
O               135.6219601679       52.8013556000      124.6361034892
H               133.3165742408       56.3885501030      123.7783369395
H               135.8970327425       56.6119653115      125.1594304981
H               134.9877808135       54.7549373793      122.9122840534
H               136.6612825114       54.9135286127      123.4239341933
N               137.1125711786       57.9046916856      123.4514784136
C               137.8214469106       58.8127658175      122.5807138613
C               139.0441819804       58.0992273608      122.0260067006
O               139.8249672196       57.5189481262      122.7778148641
C               138.3018341113       60.0827884206      123.3228957737
C               137.2398683888       60.5560837591      124.3194081592
C               138.6625628397       61.1521105859      122.2945910418
C               137.6719628561       61.7916771880      125.0989845237
H               137.6322201428       57.4609554168      124.2002357414
H               137.1248268549       59.0692512291      121.7769687575
H               139.2051395465       59.8068205763      123.8793645447
H               136.3107951020       60.7483715967      123.7809264492
H               137.0391731102       59.7421922178      125.0192843042
H               139.1244472536       62.0062190655      122.7787063389
H               139.3630228548       60.7561990593      121.5618326126
H               137.7693520661       61.4812985484      121.7687096274
H               136.9504486025       61.9810073466      125.8869557175
H               138.6475568950       61.6250356854      125.5483639181
H               137.7217432743       62.6657717493      124.4568464702
N               129.0512379433       63.2979799320      123.7184191618
C               129.0961755363       63.8138507489      125.0714361354
C               127.9415894358       64.7926893502      125.2955425340
O               127.2619283653       64.7443006544      126.3134116218
C               130.4119633576       64.5328825162      125.3843823310
C               131.5563850034       63.6172359494      125.7305320994
C               132.7561759673       63.6975093831      125.0392893994
C               131.4612397584       62.7278130447      126.7949249061
C               133.8354322714       62.9061721709      125.3931516801
C               132.5334750186       61.9271605304      127.1451731634
C               133.7231005289       62.0113082007      126.4419703735
H               129.8202743693       63.4980035929      123.0879723781
H               128.9349813581       62.9814835724      125.7683293115
H               130.6715839594       65.1567307289      124.5283876217
H               130.2313081934       65.1864803112      126.2429367155
H               132.8510555048       64.3867373331      124.2131440347
H               130.5437007585       62.6670000803      127.3610102094
H               134.7645657692       62.9898258205      124.8491283003
H               132.4518297777       61.2374469630      127.9714332439
H               134.5546827908       61.3732545221      126.7049159867
H               135.1435259610       65.8849857225      133.9082125691
H               133.7121073058       66.5289824487      129.6255236861
H               137.8368317229       65.3972510964      128.5640473751
H               135.9594745946       66.2258631241      125.8195662863
H               141.4281530848       55.7436025197      124.9807816227
H               128.4863680251       57.5673156094      132.9024668543
H               130.6081012288       53.8820024661      130.0092847139
H               139.2192094257       58.0990969956      121.0414431545
H               129.0074734795       62.3993240434      123.7408304446
H               127.7322398106       65.4853920278      124.6053717328
