437
Properties=species:S:1:pos:R:3 pbc="F F F"
N      33.19900000      25.59400000      26.38600000 
C      32.86600000      24.24400000      26.76600000 
C      33.67600000      23.23700000      25.98500000 
O      34.23600000      22.32700000      26.60100000 
C      31.37500000      23.99900000      26.60800000 
C      30.48100000      24.94300000      27.35000000 
C      29.62400000      25.74500000      26.61600000 
C      30.42600000      24.99900000      28.73200000 
C      28.71400000      26.57600000      27.23800000 
C      29.51000000      25.81800000      29.36500000 
C      28.65000000      26.59200000      28.61200000 
O      27.74700000      27.40300000      29.26400000 
H      32.46900000      26.24700000      26.22300000 
H      33.15600000      24.07700000      27.79100000 
H      31.12000000      24.07200000      25.57300000 
H      31.18500000      22.98500000      26.91400000 
H      29.66700000      25.71500000      25.55000000 
H      31.07900000      24.38600000      29.31600000 
H      28.05300000      27.19400000      26.66500000 
H      29.43500000      25.84200000      30.42800000 
H      26.83300000      27.21600000      29.06600000 
N      28.78000000      14.16000000      22.56600000 
C      27.86700000      14.32200000      23.67900000 
C      27.31000000      12.94900000      23.92800000 
O      26.39700000      12.51600000      23.20300000 
C      26.76900000      15.29600000      23.27900000 
C      27.32800000      16.67800000      22.94000000 
C      25.71500000      15.40600000      24.36200000 
C      26.52500000      17.35100000      21.84200000 
H      28.42000000      13.72000000      21.74900000 
H      28.41300000      14.67700000      24.53000000 
H      26.31600000      14.88500000      22.38900000 
H      27.32700000      17.28300000      23.83600000 
H      28.35400000      16.60400000      22.61900000 
H      24.95900000      16.11400000      24.06600000 
H      25.23900000      14.45800000      24.55800000 
H      26.16200000      15.76300000      25.27700000 
H      26.83100000      18.38100000      21.69800000 
H      26.66100000      16.82600000      20.90900000 
H      25.46900000      17.34900000      22.07700000 
N      25.14600000      10.11700000      25.92600000 
C      23.86100000      10.28000000      26.57900000 
C      23.21900000       8.89900000      26.56000000 
O      23.97200000       7.91900000      26.39500000 
C      23.07900000      11.43200000      25.93300000 
C      22.46300000      12.42800000      26.91500000 
C      23.46700000      13.44500000      27.44000000 
C      21.31200000      13.16200000      26.24900000 
H      25.31200000       9.26000000      25.45300000 
H      24.02900000      10.51700000      27.62000000 
H      23.76100000      11.96700000      25.29900000 
H      22.31900000      11.03000000      25.28400000 
H      22.08400000      11.89100000      27.77100000 
H      22.98300000      14.08300000      28.16700000 
H      24.31700000      12.97200000      27.89200000 
H      23.83500000      14.06900000      26.63600000 
H      20.85300000      13.85800000      26.93900000 
H      21.67700000      13.72300000      25.39800000 
H      20.55300000      12.47800000      25.90000000 
N      28.21400000      27.37500000      21.32800000 
C      26.91800000      27.44800000      21.93900000 
C      25.88700000      26.94900000      20.97300000 
O      24.96600000      26.19000000      21.32400000 
C      26.63700000      28.88300000      22.34600000 
C      25.41400000      28.97400000      23.23600000 
C      25.68800000      28.37900000      24.61600000 
N      24.65100000      27.42800000      24.97800000 
C      24.21300000      27.19500000      26.20200000 
N      24.75400000      27.80000000      27.25200000 
N      23.21000000      26.35000000      26.36600000 
H      28.70700000      28.21400000      21.14200000 
H      26.89000000      26.79500000      22.79100000 
H      27.49800000      29.25900000      22.87600000 
H      26.52300000      29.48600000      21.46300000 
H      25.11600000      30.00500000      23.34000000 
H      24.58600000      28.45500000      22.77700000 
H      26.64700000      27.88500000      24.63200000 
H      25.71900000      29.16700000      25.34300000 
H      24.25700000      26.86300000      24.25600000 
H      25.55800000      28.37100000      27.16600000 
H      24.37800000      27.66900000      28.16300000 
H      22.82200000      25.90200000      25.56700000 
H      22.86900000      26.13000000      27.27200000 
N      26.19100000      23.08200000      20.10300000 
C      25.72300000      22.29400000      21.21600000 
C      24.23000000      22.42100000      21.32300000 
O      23.51400000      21.41900000      21.46500000 
C      26.43700000      22.71600000      22.49700000 
C      25.69700000      22.19600000      23.71800000 
C      27.86000000      22.18400000      22.47200000 
H      26.78900000      23.86100000      20.27600000 
H      25.91100000      21.25100000      21.02900000 
H      26.46000000      23.79100000      22.52500000 
H      26.28700000      22.36300000      24.60700000 
H      24.74200000      22.68300000      23.84800000 
H      25.52600000      21.13800000      23.62200000 
H      28.41200000      22.54900000      23.32700000 
H      27.84400000      21.10100000      22.51400000 
H      28.37800000      22.49300000      21.57900000 
N      21.49300000      19.42400000      20.88200000 
C      20.70000000      19.16500000      22.05500000 
C      19.23900000      19.19700000      21.70200000 
O      18.44500000      18.33000000      22.11800000 
C      21.07500000      20.20600000      23.09700000 
C      20.23300000      20.15600000      24.36600000 
C      21.11800000      20.35100000      25.58600000 
C      19.14300000      21.21600000      24.32600000 
H      22.13000000      20.19300000      20.90500000 
H      20.89800000      18.17700000      22.43300000 
H      22.11500000      20.04900000      23.32500000 
H      21.00000000      21.17900000      22.64000000 
H      19.76800000      19.18200000      24.43200000 
H      20.53400000      20.35100000      26.49700000 
H      21.85800000      19.56900000      25.65300000 
H      21.63700000      21.30000000      25.51700000 
H      18.51300000      21.16300000      25.20400000 
H      19.60300000      22.19800000      24.29800000 
H      18.52100000      21.11800000      23.44900000 
N      21.64400000       9.89500000      34.45100000 
C      22.10400000      10.98700000      35.25500000 
C      22.62200000      10.48900000      36.57900000 
O      22.11800000       9.51000000      37.13900000 
C      20.93700000      11.92100000      35.48100000 
H      20.66500000       9.70700000      34.41700000 
H      22.89300000      11.50700000      34.74800000 
H      21.23100000      12.79200000      36.03300000 
H      20.56100000      12.22800000      34.52100000 
H      20.15100000      11.41600000      36.01800000 
N      23.63300000      11.18300000      37.10200000 
C      24.28300000      10.74000000      38.30800000 
C      23.88900000      11.63100000      39.44500000 
O      24.03900000      12.86500000      39.37700000 
C      25.79200000      10.68100000      38.18200000 
C      26.21500000       9.89200000      36.95900000 
C      26.12700000      10.70600000      35.67200000 
N      27.43500000      10.77400000      35.02900000 
C      27.64000000      10.92800000      33.73500000 
N      26.65400000      10.79400000      32.86100000 
N      28.86100000      11.21800000      33.30500000 
H      23.91000000      12.04100000      36.67100000 
H      23.92200000       9.74800000      38.49400000 
H      26.20800000      11.67600000      38.14500000 
H      26.16700000      10.20500000      39.07700000 
H      27.22900000       9.54600000      37.08900000 
H      25.59700000       9.01200000      36.87400000 
H      25.41800000      10.26400000      35.00400000 
H      25.81100000      11.71300000      35.87600000 
H      28.21900000      10.88600000      35.62900000 
H      25.74400000      10.49100000      33.12900000 
H      26.82600000      10.93400000      31.89400000 
H      29.59600000      11.38800000      33.95000000 
H      29.05900000      11.29900000      32.33700000 
N      23.22400000      17.40600000      44.25000000 
C      23.81300000      17.67200000      42.96000000 
C      23.40600000      16.59300000      41.98500000 
O      23.20700000      15.42200000      42.36800000 
C      25.33500000      17.72700000      43.12700000 
C      26.08900000      18.42100000      42.00400000 
C      27.41800000      18.97900000      42.49600000 
C      28.30800000      17.90600000      43.07800000 
N      29.59600000      18.51400000      43.53000000 
H      23.27300000      16.46100000      44.57400000 
H      23.46100000      18.62200000      42.60500000 
H      25.50700000      18.27100000      44.04200000 
H      25.70000000      16.72300000      43.28700000 
H      26.25400000      17.74900000      41.17500000 
H      25.49300000      19.24300000      41.63300000 
H      27.93600000      19.46600000      41.68100000 
H      27.23200000      19.72800000      43.25000000 
H      27.86700000      17.44300000      43.94100000 
H      28.55100000      17.15200000      42.35500000 
H      30.18900000      17.82500000      43.96600000 
H      30.10300000      18.90800000      42.75600000 
H      29.43300000      19.24700000      44.20000000 
N      23.32300000      16.93400000      40.70600000 
C      23.09300000      15.94000000      39.68600000 
C      23.72800000      16.37900000      38.40400000 
O      23.75200000      17.58200000      38.07900000 
C      21.60500000      15.68100000      39.38400000 
C      21.20800000      14.30700000      39.89700000 
C      19.88000000      13.85200000      39.39700000 
O      19.78700000      13.02900000      38.47700000 
N      18.80500000      14.35000000      40.00500000 
H      23.34100000      17.89700000      40.43000000 
H      23.54400000      15.02400000      40.00900000 
H      21.00900000      16.45600000      39.83500000 
H      21.44000000      15.72300000      38.32200000 
H      21.93200000      13.59800000      39.54600000 
H      21.22400000      14.32500000      40.97200000 
H      18.87900000      15.02600000      40.72100000 
H      17.90000000      14.11400000      39.67400000 
N      24.19200000      15.40900000      37.62700000 
C      24.82000000      15.66400000      36.35300000 
C      24.23900000      14.73900000      35.32200000 
O      23.96800000      13.55600000      35.60000000 
C      26.33600000      15.51600000      36.50000000 
C      26.85700000      16.73100000      37.27100000 
C      27.03600000      15.37500000      35.16300000 
C      27.94100000      16.39500000      38.28000000 
H      24.18700000      14.46800000      37.96500000 
H      24.59400000      16.67200000      36.07000000 
H      26.50300000      14.62300000      37.08400000 
H      27.22700000      17.45300000      36.55400000 
H      26.04500000      17.20800000      37.79100000 
H      28.10700000      15.40600000      35.30800000 
H      26.78900000      14.45000000      34.66300000 
H      26.76200000      16.19400000      34.51500000 
H      28.32200000      17.28900000      38.75000000 
H      27.53900000      15.75500000      39.05600000 
H      28.77000000      15.87700000      37.81500000 
N      24.04500000      15.26700000      34.12000000 
C      23.36400000      14.56200000      33.05600000 
C      24.20000000      14.69100000      31.80800000 
O      24.83600000      13.75000000      31.32600000 
C      21.92800000      15.06900000      32.80100000 
C      21.17500000      15.44300000      34.03100000 
C      21.58300000      16.53600000      34.77800000 
C      20.04300000      14.76200000      34.42600000 
C      20.92200000      16.89600000      35.92800000 
C      19.36600000      15.11300000      35.57000000 
C      19.81800000      16.17400000      36.31800000 
O      19.11100000      16.48300000      37.45200000 
H      24.28800000      16.22500000      33.97800000 
H      23.33900000      13.52500000      33.32500000 
H      21.95500000      15.92200000      32.14800000 
H      21.40300000      14.29200000      32.26500000 
H      22.41400000      17.11200000      34.44900000 
H      19.67900000      13.96000000      33.82400000 
H      21.25900000      17.72500000      36.51400000 
H      18.49500000      14.58600000      35.89100000 
H      19.38600000      17.28800000      37.87400000 
N      24.21300000      15.90500000      31.25800000 
C      24.84600000      16.17200000      29.99900000 
C      26.33700000      16.07700000      30.13600000 
O      26.91200000      16.52400000      31.15500000 
C      24.45300000      17.58900000      29.57800000 
C      24.50100000      17.83800000      28.10900000 
C      25.34100000      18.78500000      27.55800000 
C      23.61600000      17.16100000      27.27900000 
C      25.29700000      19.06100000      26.19900000 
C      23.56600000      17.42600000      25.93200000 
C      24.41000000      18.38400000      25.40100000 
O      24.30400000      18.60900000      24.05000000 
H      23.77400000      16.65800000      31.71700000 
H      24.50800000      15.45500000      29.27300000 
H      23.44200000      17.74400000      29.91600000 
H      25.07900000      18.28900000      30.09800000 
H      26.02400000      19.31600000      28.18300000 
H      22.96500000      16.42600000      27.70100000 
H      25.95100000      19.79500000      25.77500000 
H      22.89600000      16.90400000      25.28800000 
H      24.98400000      19.16300000      23.68300000 
N      27.01000000      15.53800000      29.13800000 
C      28.45200000      15.47900000      29.15000000 
C      28.91900000      15.68200000      27.74500000 
O      28.38500000      15.04900000      26.81400000 
C      28.92000000      14.16200000      29.74100000 
O      28.61900000      14.18200000      31.14700000 
C      30.39000000      13.93000000      29.54800000 
H      26.54200000      15.12500000      28.36400000 
H      28.82300000      16.27200000      29.76800000 
H      28.35700000      13.36300000      29.28700000 
H      28.13600000      14.96300000      31.41500000 
H      30.69700000      13.07100000      30.12500000 
H      30.60400000      13.73200000      28.50800000 
H      30.95800000      14.79100000      29.86800000 
N      29.88600000      16.56300000      27.59300000 
C      30.38200000      16.95500000      26.30000000 
C      31.85600000      16.69400000      26.29000000 
O      32.54900000      17.06700000      27.25800000 
C      30.14600000      18.44600000      26.04000000 
C      30.39800000      18.75500000      24.57300000 
C      28.74700000      18.86200000      26.45200000 
H      30.27900000      17.01200000      28.39900000 
H      29.88300000      16.36800000      25.55200000 
H      30.85200000      18.98800000      26.64100000 
H      30.33700000      19.82000000      24.39700000 
H      31.37200000      18.41200000      24.25500000 
H      29.65500000      18.26300000      23.96100000 
H      28.58800000      19.90600000      26.21300000 
H      28.00500000      18.27800000      25.92600000 
H      28.58900000      18.73200000      27.51000000 
N      33.27400000      18.62000000      29.57500000 
C      32.49500000      19.39200000      30.51500000 
C      31.25600000      18.60000000      30.83700000 
O      30.90500000      17.63800000      30.12900000 
C      32.14600000      20.77500000      29.94500000 
C      31.35000000      20.63100000      28.66900000 
C      31.42900000      21.67700000      30.93200000 
H      32.79800000      17.93100000      29.03300000 
H      33.07200000      19.53000000      31.41600000 
H      33.10000000      21.21700000      29.71200000 
H      31.06700000      21.60500000      28.30400000 
H      31.93100000      20.13100000      27.91300000 
H      30.44300000      20.06700000      28.83900000 
H      31.45500000      22.69000000      30.56700000 
H      30.39300000      21.39300000      31.03400000 
H      31.88700000      21.66600000      31.90800000 
N      30.54200000      18.99700000      31.88400000 
C      29.29500000      18.37100000      32.23700000 
C      28.34500000      19.41800000      32.75500000 
O      28.76100000      20.42700000      33.34600000 
C      29.50000000      17.28700000      33.27600000 
H      30.85400000      19.75400000      32.44600000 
H      28.87800000      17.93500000      31.35100000 
H      28.57500000      16.78500000      33.48400000 
H      30.21000000      16.56800000      32.89300000 
H      29.89100000      17.71400000      34.18800000 
N      27.05700000      19.17100000      32.53400000 
C      26.00800000      20.04900000      32.97800000 
C      25.03100000      19.31100000      33.85400000 
O      24.74400000      18.11800000      33.64500000 
C      25.11800000      20.56300000      31.85300000 
C      25.68200000      21.45900000      30.80400000 
C      27.02400000      21.68200000      30.56200000 
C      24.75100000      22.08400000      29.97700000 
C      27.42900000      22.49600000      29.51100000 
C      25.13800000      22.89100000      28.93800000 
C      26.48800000      23.09200000      28.70700000 
O      26.82500000      23.90200000      27.64700000 
H      26.80300000      18.32700000      32.06400000 
H      26.44500000      20.86300000      33.51900000 
H      24.69300000      19.69500000      31.37800000 
H      24.29900000      21.08300000      32.32200000 
H      27.76800000      21.23900000      31.17900000 
H      23.70800000      21.92300000      30.16800000 
H      28.47200000      22.65900000      29.32500000 
H      24.41900000      23.36800000      28.30500000 
H      27.75200000      24.10300000      27.57800000 
N      24.38700000      20.04200000      34.74000000 
C      23.27900000      19.50800000      35.47700000 
C      22.72300000      20.55000000      36.38500000 
O      22.39600000      21.66500000      35.93700000 
H      24.58500000      21.00600000      34.79800000 
H      22.49200000      19.24300000      34.79100000 
H      23.56700000      18.64000000      36.02600000 
N      15.39800000      13.83600000      32.10900000 
C      16.13200000      15.00000000      31.64400000 
C      16.04900000      15.11000000      30.13800000 
O      16.91900000      14.62800000      29.39800000 
C      17.57800000      14.95600000      32.09900000 
C      18.19800000      16.31200000      32.20600000 
C      17.88700000      17.11600000      33.29000000 
C      19.12400000      16.75500000      31.28600000 
C      18.51800000      18.32300000      33.47600000 
C      19.76300000      17.97300000      31.46000000 
C      19.46600000      18.74600000      32.56200000 
H      15.90000000      13.03300000      32.39700000 
H      15.65100000      15.86000000      32.06900000 
H      17.60400000      14.47800000      33.06500000 
H      18.15200000      14.35900000      31.41800000 
H      17.17400000      16.76700000      34.00600000 
H      19.36500000      16.14100000      30.44400000 
H      18.28700000      18.92700000      34.32800000 
H      20.49300000      18.30300000      30.75100000 
H      19.97000000      19.66600000      32.71800000 
N      19.37000000      22.17100000      31.80200000 
C      20.62100000      22.05200000      32.48900000 
C      21.43100000      23.31900000      32.47500000 
O      21.14400000      24.28000000      31.75100000 
H      19.38100000      22.19700000      30.81000000 
H      20.43000000      21.78100000      33.51100000 
H      21.21700000      21.27300000      32.04300000 
N      22.48100000      23.30000000      33.29300000 
C      23.30000000      24.46700000      33.53800000 
C      24.71600000      23.99000000      33.68700000 
O      24.93800000      22.88300000      34.22400000 
C      22.81800000      25.15700000      34.83600000 
C      22.72000000      26.68500000      34.84500000 
C      23.95000000      27.34400000      35.45400000 
C      22.37400000      27.27300000      33.48500000 
H      22.59500000      22.54400000      33.93700000 
H      23.19400000      25.11900000      32.69700000 
H      21.83400000      24.76100000      35.01300000 
H      23.42700000      24.82900000      35.66500000 
H      21.90000000      26.90700000      35.51200000 
H      23.89300000      28.42000000      35.35800000 
H      24.00800000      27.09900000      36.50100000 
H      24.86000000      27.01100000      34.98000000 
H      22.02300000      28.29000000      33.59600000 
H      23.23800000      27.30000000      32.83300000 
H      21.60400000      26.70000000      32.99400000 
N      25.73000000      24.74600000      33.30000000 
C      27.08100000      24.27500000      33.54300000 
C      27.29100000      23.93200000      34.98400000 
O      26.87100000      24.67400000      35.88400000 
C      27.93000000      25.48100000      33.15400000 
C      27.12300000      26.10500000      32.03200000 
C      25.70000000      25.99800000      32.54200000 
H      27.29100000      23.42300000      32.92000000 
H      27.97900000      26.16000000      33.99300000 
H      28.93200000      25.20100000      32.87600000 
H      27.41000000      27.11800000      31.81600000 
H      27.23400000      25.52700000      31.13200000 
H      25.46500000      26.82500000      33.18200000 
H      24.97300000      25.95000000      31.75100000 
N      28.03800000      22.85300000      35.21900000 
C      28.48200000      22.51600000      36.55300000 
C      29.99500000      22.53100000      36.52200000 
O      30.60900000      23.60000000      36.65700000 
C      27.85500000      21.24400000      37.10900000 
C      26.34100000      21.27700000      36.95400000 
C      28.26100000      21.05500000      38.56000000 
C      25.61500000      22.24600000      37.87300000 
H      28.25300000      22.21900000      34.47500000 
H      28.20100000      23.33900000      37.18200000 
H      28.20000000      20.39900000      36.52500000 
H      26.12500000      21.53900000      35.94000000 
H      25.96200000      20.27800000      37.11800000 
H      27.77500000      20.18200000      38.97100000 
H      29.32600000      20.93700000      38.67100000 
H      27.95300000      21.91200000      39.14200000 
H      24.58700000      22.34900000      37.55900000 
H      25.61700000      21.90500000      38.90000000 
H      26.06600000      23.22600000      37.83600000 
H      33.69754231      25.97364362      27.03200797 
H      33.74905650      23.31701606      24.99088724 
H      29.07271101      14.96761819      22.29753561 
H      27.67344895      12.38950152      24.67289349 
H      25.24955627      10.75770144      25.30247954 
H      22.23029744       8.80558513      26.67722165 
H      28.76841395      26.90097865      21.85518966 
H      25.92632253      27.22532120      20.01273944 
H      26.66137549      22.55913799      19.54142879 
H      23.80056303      23.32306921      21.27992995 
H      22.00268998      18.70511496      20.69918746 
H      18.88125085      19.92677039      21.11937600 
H      21.88055977      10.03265251      33.59362537 
H      23.49804083      11.23692288      40.27677770 
H      23.63602457      17.90345009      44.87672095 
H      32.27548206      16.22506464      25.51273915 
H      33.65293899      19.17226363      28.97382605 
H      22.61075399      20.35576804      37.35951259 
H      14.90269773      14.05997900      32.82629287 
H      15.27656370      15.58188360      29.71294937 
H      18.84512976      21.47013122      32.01007253 
H      30.50093153      21.67819825      36.39253009 
