 473 
 
N                28.5832223891       56.2358151876       35.0232519813
C                27.6230817165       55.4866733241       34.2462911227
C                27.3139579029       56.2040910343       32.9456458766
O                27.1611707067       55.5294812988       31.9308235754
C                26.3447693881       55.1930365413       35.0434964920
C                26.6500470857       54.1889510247       36.1591763773
C                25.2565756828       54.6400620521       34.1291018957
C                25.5442730021       54.1493017830       37.2048491381
H                28.2793544467       56.5707860426       35.9308699206
H                28.0646905634       54.5261981241       33.9409828770
H                26.0165585910       56.1386984369       35.4820230509
H                26.7794436015       53.1999399134       35.7166039982
H                27.5820566334       54.4719784317       36.6447176486
H                24.3635243067       54.4150204536       34.7023695500
H                24.9921396397       55.3484627801       33.3496904374
H                25.6046214460       53.7241698779       33.6568297703
H                25.8503548978       53.5466063334       38.0548738320
H                25.3414078675       55.1606607579       37.5472631622
H                24.6270996394       53.7321137342       36.7997905048
N                30.0502619493       55.7439357416       30.5775716867
C                29.9681239923       54.3242993198       30.3257257787
C                28.8063149915       53.9998150840       29.3843155094
O                28.9889709766       53.2166829270       28.4447675625
C                29.8081829511       53.6448042495       31.6956908124
C                31.1185714290       53.4548512978       32.4692500241
C                29.0831821084       52.3231751501       31.5667959770
C                32.1152561402       52.4837887344       31.8517746787
H                29.8065511182       55.9959177564       31.5279491953
H                30.8694930471       53.9638409944       29.8129756038
H                29.1893467932       54.3215490022       32.2855092365
H                31.6074151978       54.4189211574       32.6082724405
H                30.8271793644       53.0789550357       33.4535840130
H                29.0302941001       51.8490504543       32.5421743880
H                28.0758836730       52.4625282186       31.1858391259
H                29.6328807075       51.6864220411       30.8838127424
H                32.9554839529       52.3656764321       32.5304485863
H                31.6801952519       51.5033110482       31.6859186142
H                32.4939628282       52.8542537261       30.9036076988
N                27.6329192531       54.5882925254       29.5674741778
C                26.5733564176       54.3372413649       28.6148916704
C                26.8847666360       55.0509497060       27.3096671169
O                26.4694705065       54.6188118399       26.2403850835
C                25.1678059921       54.7924941248       29.0462811094
C                25.1580859017       56.2533127240       29.5146765084
C                24.6100366722       53.8748525804       30.1242384683
C                24.0407396888       57.0880493875       28.9060624606
H                27.4266740603       55.1201486321       30.4126728367
H                26.5521481580       53.2630721792       28.3880990711
H                24.5569525664       54.6995655860       28.1412764685
H                25.0677899766       56.2718171384       30.6014810746
H                26.0981570583       56.7209132092       29.2390662044
H                23.6344148292       54.2352573074       30.4372946903
H                24.4996804782       52.8591864706       29.7547439961
H                25.2889017105       53.8825020218       30.9721323640
H                24.1644158753       58.1309806805       29.1909194805
H                24.0846130642       57.0185433908       27.8225751058
H                23.0639479155       56.7503964441       29.2389709882
N                28.8635772609       52.7068001415       25.7574998265
C                28.0973985462       51.6877940697       25.0664288127
C                27.5101057151       52.2106431301       23.7672517971
O                27.4628362982       51.5015955587       22.7612929693
C                26.9829615439       51.1797547881       25.9867151837
C                25.9172083009       50.3822482284       25.2431205839
C                27.6100456827       50.3302134139       27.0804891446
H                28.7261494391       52.8199008402       26.7555589008
H                28.7889307018       50.8844559258       24.7703181879
H                26.5002114314       52.0608484563       26.4225851188
H                25.1270938578       50.1136680351       25.9390001916
H                25.4870326160       50.9480487675       24.4209375046
H                26.3414076497       49.4722129369       24.8303795788
H                26.8413091632       49.9299773687       27.7292897273
H                28.1472057676       49.4986987970       26.6322191200
H                28.3110869964       50.9119990877       27.6706500750
N                25.8294133056       48.1442757672       47.1894977538
C                26.4990918952       47.3022551943       46.2256778964
C                25.5301869934       46.8059051225       45.1573454392
O                25.9200332223       46.7309024476       44.0036379861
C                27.2068705806       46.1211008814       46.9079744028
C                28.2145777035       46.6262087828       47.9033507728
C                27.8582985088       46.7953205291       49.2378996303
C                29.5004984014       46.9665917379       47.5027713572
C                28.7674460213       47.2742674839       50.1605679078
C                30.4237001994       47.4358369621       48.4183574167
C                30.0638603529       47.5823192972       49.7552212997
O                30.9429683238       48.0098596372       50.6975563278
H                26.1561062941       48.0639373069       48.1452811786
H                27.2560993327       47.8858417915       45.6816149637
H                26.4718423638       45.4835830757       47.3978952137
H                27.7018271088       45.5432092964       46.1265367241
H                26.8748539340       46.4942861138       49.5705228212
H                29.7944098102       46.8383081411       46.4710277566
H                28.5073168641       47.3936253351       51.2003822235
H                31.4298005033       47.6731475059       48.0990278858
H                31.8236884052       48.1011648952       50.3124346623
N                24.2911245835       46.4201377176       45.5027294139
C                23.3678925605       45.9845340461       44.4594419750
C                23.2894473470       46.9997957115       43.3304181820
O                23.2042504933       46.6164878040       42.1670934605
C                21.9455780310       45.7004723567       44.9835809547
C                21.1017535634       44.9507041154       43.9431601332
C                21.2288023609       46.9768460396       45.4082958832
C                19.7880402832       44.4578686408       44.5410019132
H                23.9393409012       46.5768411969       46.4366141573
H                23.7624365141       45.0665570058       43.9961950442
H                22.0546560770       45.0340323256       45.8412597774
H                20.8902335711       45.5987798268       43.0898547913
H                21.6607012000       44.0900419849       43.5714915502
H                20.4087568984       46.7355784720       46.0750958885
H                21.8808823931       47.6625797667       45.9368110095
H                20.8231166295       47.4931842825       44.5424823084
H                19.2251877998       43.9038624206       43.7959784377
H                19.9851339359       43.7883605101       45.3732240621
H                19.1742228833       45.2844521751       44.8863774873
N                23.2335557145       48.2953392534       43.6469370611
C                23.2069776624       49.2879961614       42.5878747865
C                24.4693896541       49.1020515028       41.7371403868
O                24.4572005679       49.1190187342       40.5132397426
C                23.0401229046       50.6984693946       43.1800343123
C                21.7137451688       50.7686739052       43.9511664949
C                23.0685162305       51.7262830519       42.0544915872
C                21.5751608423       52.0333834452       44.7895660183
H                23.4778286226       48.6396347889       44.5672195799
H                22.3583582839       49.0732637521       41.9254342749
H                23.8715683497       50.8909549679       43.8659419076
H                20.8948108165       50.7146106191       43.2320115236
H                21.6334628054       49.9088195082       44.6165563888
H                22.9723244334       52.7371404106       42.4392488224
H                24.0023594510       51.6640206211       41.5019862059
H                22.2490992383       51.5367122950       41.3651319494
H                20.6665675860       51.9884531415       45.3849431268
H                22.4265592362       52.1297358131       45.4579039725
H                21.5274783156       52.9188555943       44.1630692574
N                25.5687578309       48.8409846275       42.4520917549
C                26.8642753193       48.6241246427       41.8566823085
C                27.1798542029       47.1670052831       41.4280612807
O                28.3200378553       46.9100638910       41.0696045939
C                27.9735900254       49.0381869475       42.8242465816
C                27.7798489489       50.4673208092       43.3020017701
O                27.3202791685       51.3440198588       42.5917846042
N                28.1346718349       50.6776227467       44.5811482335
H                25.5200068774       48.9173240579       43.4596432391
H                26.9074766730       49.2713874098       40.9667355892
H                27.9856883106       48.3296246046       43.6515458936
H                28.9248582795       48.9593987282       42.2922606983
H                28.0873668234       51.6153271430       44.9494566895
H                28.5871587393       49.9596500332       45.1193392674
N                26.1743100608       46.2809957917       41.4513733249
C                26.2817239622       44.8965804160       41.0109316300
C                25.2974355317       44.6408609902       39.8597245546
O                25.5346940737       43.8410642622       38.9590778462
C                26.0588311070       43.8410684629       42.1142690504
C                27.1333107799       43.9667036752       43.1979773911
C                26.0886201155       42.4466819582       41.4886470016
C                26.8091705820       43.1599453580       44.4491878784
H                25.4184841993       46.5122607319       42.0820304502
H                27.2873001580       44.7603709540       40.6046013752
H                25.0710631506       44.0277191874       42.5500169680
H                28.0867769000       43.6316701494       42.7860597350
H                27.2324765153       45.0184221519       43.4655489954
H                25.9263335789       41.6784309477       42.2367166344
H                25.3271923619       42.3371777829       40.7223785790
H                27.0573104890       42.2734314066       41.0252352290
H                27.5903816205       43.2919167397       45.1935816600
H                25.8634247558       43.4841403622       44.8768757840
H                26.7410401223       42.1005451507       44.2210749797
N                24.2008320523       45.4015148882       39.9083952106
C                23.2844889221       45.5654061055       38.8000013763
C                23.9871426559       46.4152229501       37.7342601813
O                24.0429664432       45.9844762040       36.5842371512
C                21.9147047446       46.0756038677       39.2928697918
C                20.7463209840       45.5399137695       38.4538579250
C                21.8386469261       47.5945955668       39.3635909950
C                19.4568032102       45.5193182391       39.2690760924
H                23.9782218769       45.9006159205       40.7602484609
H                23.1428635639       44.5846731830       38.3247913821
H                21.8057906160       45.6817474487       40.3083484757
H                20.6142336938       46.1679640628       37.5710094617
H                20.9593145214       44.5257187617       38.1125679029
H                20.8864134638       47.8823305476       39.7983984090
H                22.6312377719       47.9901450501       39.9860170705
H                21.9077597618       48.0343206595       38.3717752320
H                18.6132323952       45.2235534769       38.6519595414
H                19.5467390227       44.8113388025       40.0893832571
H                19.2428673283       46.5007596475       39.6825847755
N                24.6204018736       47.5327562170       38.0927327777
C                25.3658049188       48.3486090413       37.1393269427
C                26.3257020695       47.5279660537       36.2709558799
O                26.2518709846       47.6182339844       35.0456662652
C                26.0782404710       49.4890778852       37.8548344117
H                24.5153005313       47.9381882112       39.0173384377
H                24.6708628169       48.7994627624       36.4175861415
H                26.4816415501       50.1792493793       37.1202603531
H                25.3612695735       50.0148901706       38.4794895280
H                26.8872746649       49.1269542315       38.4806423879
N                27.2744925500       46.7764345477       36.8417980852
C                28.1433208937       45.9806488016       35.9933989034
C                27.3334829184       44.9625672476       35.2202556611
O                27.6640868610       44.6752383615       34.0777268357
C                29.1384899279       45.2747440223       36.9189234269
C                28.4629583525       45.2977916085       38.2906576248
C                27.3767421110       46.3771057726       38.2294095713
H                28.6592338295       46.5946736430       35.2462588209
H                29.3180326912       44.2565141812       36.5737327289
H                30.0948286294       45.7950444906       36.9296390980
H                28.0036437577       44.3321258169       38.4988745156
H                29.1706745867       45.5403307962       39.0790266918
H                26.4268267388       45.9791625477       38.5813992062
H                27.6277441695       47.2234172683       38.8657081649
N                26.2940262988       44.3675525199       35.8111630140
C                25.5708254042       43.3448283326       35.0845261873
C                24.6832852915       43.9168142135       33.9679409428
O                24.4437365789       43.2053525728       32.9884012841
C                24.8505672959       42.4122471062       36.0544363313
S                24.2014208074       40.9070102893       35.2406354214
H                26.0296855359       44.5420157319       36.7687209418
H                26.3162937358       42.7469845336       34.5411752910
H                25.5742873152       42.0536843289       36.7891647417
H                24.0371672257       42.9058481041       36.5832569233
H                23.6272832743       41.5007825616       34.1970362098
N                24.2800018037       45.1775301891       34.0524565057
C                23.5310610989       45.8105383532       32.9800153109
C                24.5117508947       46.3159710035       31.9255894795
O                24.2362529070       46.3160186140       30.7227575408
C                22.5822785241       46.9444574608       33.4374271085
C                21.4879803300       46.3890108101       34.3441451949
C                23.3290981597       48.0624718252       34.1518715036
H                24.4003622739       45.6727673862       34.9292125881
H                22.9218423214       45.0349725098       32.4983085136
H                22.1172223116       47.3376955125       32.5267569988
H                20.8736674642       47.2024792793       34.7218844716
H                20.8480871186       45.7038804250       33.7954368089
H                21.9358448044       45.8739927054       35.1901332266
H                22.6479655934       48.8541613133       34.4536429205
H                23.7870648975       47.6580173662       35.0453960412
H                24.0991710743       48.4931150519       33.5199949737
N                25.6940207637       46.7100120441       32.3858998982
C                26.7084815373       47.2146104829       31.4851236847
C                27.4431234871       46.0790382639       30.7897790717
O                27.8005517148       46.2137537363       29.6192649278
C                27.6669248703       48.1188716864       32.2490563009
C                28.3753425169       49.1843968038       31.3969837578
C                29.7751390334       48.7538691054       30.9695346941
C                27.5866888995       49.6341762435       30.1719353177
H                25.8420080955       46.8293285046       33.3849344695
H                26.2136773594       47.7832575330       30.6913451213
H                27.0693310793       48.6198365289       33.0101698735
H                28.4025342308       47.4911396070       32.7542034761
H                28.4796775864       50.0518333038       32.0416129975
H                30.1722083757       49.4827598378       30.2666964712
H                30.4418339045       48.7004062155       31.8267930440
H                29.7493928943       47.7865343433       30.4774080748
H                28.0231255271       50.5434251493       29.7731835637
H                27.6391897135       48.8860564255       29.3873034194
H                26.5477039321       49.8526349713       30.4059925263
N                27.6423459324       44.9824453413       31.5082333263
C                28.1454029859       43.7390571139       30.9522160435
C                27.0756734367       43.2209366688       30.0095244915
O                27.3430696203       42.7460801997       28.9146336634
C                28.5364853885       42.7006352520       32.0325806747
C                29.7707366336       41.8915437388       31.6063255333
C                27.3893216211       41.7612451383       32.4130415805
C                29.5652820964       41.1241558892       30.3087049959
H                27.4885301437       44.9978561537       32.5112149439
H                29.0216882531       43.9708592811       30.3402770900
H                28.8117750381       43.2671970191       32.9256551024
H                30.6257688536       42.5611620331       31.4996698329
H                29.9946207445       41.1821661962       32.4040640368
H                27.6685531579       41.1721619746       33.2840575302
H                26.4865766524       42.3134807275       32.6407750666
H                27.1332013400       41.0708520436       31.6143054711
H                30.3791595865       40.4295486135       30.1225537743
H                28.6474311122       40.5470957498       30.3501408833
H                29.4970399023       41.8084514880       29.4683876361
N                25.8096731756       43.3474347338       30.4262911055
C                24.7763906672       42.9903396184       29.4861414344
C                24.9795355704       43.8396201537       28.2453058083
O                24.9064409849       43.3550196230       27.1324795341
C                23.3492298846       43.2004316795       29.9915018702
O                22.9342544493       42.2260540349       30.9022969411
H                25.5574422096       43.7380136896       31.3213803534
H                24.9076980364       41.9394000354       29.1943161562
H                23.2673812680       44.2030368246       30.4220371020
H                22.6926642697       43.1323799772       29.1185953490
H                23.4482047234       42.3537286991       31.7167007480
N                25.2475768132       45.1342974615       28.4334671979
C                25.5261892584       45.9203981259       27.2527294808
C                26.7213454776       45.3093703143       26.5197042754
O                26.6635668790       45.1592435383       25.3094172651
C                25.7815382364       47.3888207256       27.5839913067
O                24.6549891445       48.0410872474       28.1112310977
H                25.0954798944       45.5970288411       29.3254167083
H                24.6800129524       45.8603248768       26.5535936338
H                26.6286277222       47.4504861007       28.2741933197
H                26.0363948293       47.9108309272       26.6593921207
H                24.3308080024       47.5512777571       28.8817925401
N                27.7999190437       44.9778888071       27.2286831421
C                28.9793321563       44.5118383622       26.5213955148
C                28.7125531015       43.2478159021       25.7165018845
O                29.3138692804       43.0982709926       24.6528857720
C                30.1936966081       44.1526970901       27.3839520973
C                30.5337848460       45.1590248204       28.4783869806
C                31.6494858092       44.5854671856       29.3479194938
C                30.9315667359       46.5173133062       27.9151134819
H                27.8894148703       45.3080709493       28.1884280080
H                29.2870285633       45.2855216870       25.8060072238
H                30.0291792645       43.1719182550       27.8347459307
H                31.0368576246       44.0609782797       26.6945937864
H                29.6469258720       45.3032592380       29.0920422650
H                31.7100845880       45.1105753170       30.2977142494
H                31.4850633149       43.5279399599       29.5405893347
H                32.5991262643       44.6863918912       28.8311893763
H                31.1110077999       47.2090142969       28.7329451764
H                31.8445618851       46.4414080043       27.3308695767
H                30.1451337081       46.9207342691       27.2834777323
N                27.9320182912       42.3167645398       26.2543875933
C                27.5999004129       41.1185880535       25.5067964025
C                26.5351348611       41.4646809065       24.4790210273
O                26.6660846211       41.1223915941       23.3051675630
C                27.2120852532       39.8953847971       26.3602595778
C                28.4110088764       39.4785782339       27.2029065944
C                25.9908827158       40.1327369358       27.2395412967
H                27.5533519731       42.4489731750       27.1853924093
H                28.4759201441       40.8405742439       24.9103140549
H                26.9960284394       39.0927830073       25.6500937083
H                28.1550017488       38.6719356512       27.8825115242
H                29.2034677572       39.1114972268       26.5615340799
H                28.7686021794       40.3208925426       27.7829146782
H                25.8034463020       39.2580352205       27.8567106230
H                26.1771988128       40.9751249596       27.8951283626
H                25.1016323065       40.3230813247       26.6456870801
N                25.4828627251       42.1617803034       24.8807694986
C                24.4965600658       42.5685022267       23.9035155687
C                25.2168988792       43.2009862768       22.7174210582
O                24.8284927277       42.9522524580       21.5774614815
C                23.3897669451       43.4714775576       24.4861635542
C                23.5693804833       44.9426766969       24.1242783855
C                22.0345155042       42.9743256033       23.9940423344
H                25.3708227379       42.4653333261       25.8395831253
H                24.0192531129       41.6615229335       23.5028973227
H                23.4290244600       43.3810344668       25.5730399839
H                22.7873711658       45.5234828063       24.6054936828
H                24.5361185416       45.3097884575       24.4526752422
H                23.4883891595       45.0793007634       23.0487057252
H                21.2384449535       43.6393162464       24.3162843297
H                22.0239511173       42.9401865125       22.9090267091
H                21.8364395876       41.9748852762       24.3699723770
N                26.2370369829       44.0043517453       22.9913797955
C                27.1578992718       44.5566631164       22.0177311242
C                27.8967282759       43.3923603536       21.3610233831
O                27.7615572536       43.1897533707       20.1575698259
C                28.1491335472       45.5201305833       22.6664506812
C                27.5306080859       46.8724243184       23.0623612984
C                28.2387491506       47.4297951392       24.2990605378
C                27.6769677393       47.8716144142       21.9242497926
H                26.4207280369       44.2540832381       23.9566086571
H                26.6020134549       45.0818619724       21.2263513108
H                28.5772458623       45.0326800865       23.5390587702
H                28.9605013851       45.6919042522       21.9536848483
H                26.4759078343       46.7114672325       23.2975216340
H                28.1540661731       48.5119863300       24.3791252211
H                27.8096608337       47.0027706118       25.1940699105
H                29.2889890971       47.1648487166       24.2356875040
H                27.3609923261       48.8531392982       22.2640152339
H                28.7267248234       47.9227503680       21.6470268174
H                27.1008400861       47.5909610129       21.0468848835
N                35.5986362191       41.1034281585       29.5011385279
C                34.4202303422       40.7849064487       30.2713873548
C                34.7774400271       39.6909434256       31.2843601301
O                34.3476104079       39.7408528086       32.4308512640
C                33.2447591671       40.4481334313       29.3403648300
C                33.3305123185       39.0284729015       28.8025278114
C                32.4906497467       38.6115581996       27.6194523403
O                32.5006402086       37.4392952046       27.2713382554
N                31.8484946763       39.5468699540       26.9025558070
H                35.5667356072       40.9815696641       28.4924053452
H                34.1514462192       41.6626422955       30.8779302988
H                32.3259993544       40.5973920180       29.9041320709
H                33.2875390293       41.1616806878       28.5151857765
H                34.3503665318       38.8610652546       28.4536484765
H                33.1497549033       38.2940578650       29.5894462998
H                31.6892324730       40.4701262886       27.2561557484
H                31.2881741809       39.2255760481       26.1246568214
N                34.6018542162       39.7788732053       35.2801420521
C                33.7746652137       38.8765805327       36.0483166830
C                34.6205008861       38.0682688687       37.0275068301
O                34.1863983640       37.7661024772       38.1383844464
C                32.9310409206       37.9634225535       35.1588017395
C                31.9939698305       38.7037836040       34.1975303807
C                31.2419298386       37.6792694539       33.3587702217
C                30.9891752141       39.6007757772       34.9044096702
H                34.6767767582       39.6408287543       34.2788705414
H                33.1108930868       39.4802272089       36.6777539098
H                33.5955214073       37.3310540031       34.5661463386
H                32.3305596942       37.3209646120       35.8060086183
H                32.5937159984       39.3130611970       33.5209755876
H                30.5579595103       38.1928192392       32.6925122388
H                31.9381277925       37.0955271654       32.7614177612
H                30.6700387076       37.0010047997       33.9887552764
H                30.3050406924       40.0158291364       34.1694998169
H                30.4096432625       39.0251519720       35.6195163427
H                31.4819584295       40.4229906328       35.4113640543
N                23.8674806660       33.4061477492       36.5346042781
C                23.7623699972       34.3972719912       35.4807641701
C                25.1619753610       34.5984643754       34.9156561900
O                25.3842550219       34.5083291747       33.7151988083
C                23.1389983563       35.7224538876       35.9361661132
C                23.2617604014       36.7535181319       34.8167073982
C                21.6693175896       35.5465654447       36.3025864778
H                23.6393069881       33.6793029398       37.4854677663
H                23.1612341120       33.9702579757       34.6645997648
H                23.6884970921       36.0697646868       36.8155595011
H                22.8193392071       37.6980193969       35.1198401689
H                24.3004397666       36.9320403217       34.5569636864
H                22.7408864963       36.4040595614       33.9287651803
H                21.2334848579       36.5180287696       36.5192843927
H                21.1164284317       35.1058779829       35.4760768153
H                21.5661112383       34.9162180752       37.1785810516
N                26.0674926044       34.0881917894       31.1806458958
C                26.6173517755       35.1144624487       30.3164589220
C                27.9191403189       34.5151299273       29.7885899454
O                28.1446379936       34.5590764624       28.5792163267
C                26.7570354754       36.5383661814       30.8998048259
C                28.0096217871       36.7153233093       31.7610277745
C                25.4813723757       36.9420103043       31.6347393471
C                29.2495757195       36.9124760411       30.8895974275
H                26.0739185895       34.2113854494       32.1862001242
H                25.9637461134       35.2019543168       29.4367572236
H                26.8691449493       37.1955569589       30.0275351667
H                27.8811131274       37.5919192141       32.3971698693
H                28.1368870275       35.8540156362       32.4119437595
H                25.5724291942       37.9548087928       32.0183061236
H                24.6282079979       36.9038236071       30.9637010849
H                25.2957024105       36.2752322498       32.4680440740
H                30.1401538973       36.5304065031       31.3727007575
H                29.1512441357       36.3976642772       29.9418692256
H                29.3927536373       37.9631306907       30.6574501595
N                19.0023381709       36.3762884195       27.6840492358
C                19.3192084448       37.3542550035       28.7123981202
C                18.0504433413       37.9503202092       29.2996837436
O                17.9230029573       38.1513692075       30.5047905552
C                20.1978475358       38.4673661455       28.1491646625
C                20.7534942151       39.3875781805       29.2354790421
C                21.7138294451       38.6494730414       30.1669336877
C                21.4695902352       40.5582542210       28.5713321151
H                19.4310050656       36.5620083478       26.7764547795
H                19.8531974320       36.8592380116       29.5284513851
H                21.0331836250       38.0159833658       27.6131864942
H                19.6160352926       39.0521555630       27.4354916386
H                19.9233239364       39.7813724690       29.8302539706
H                22.2899367793       39.3819059773       30.7222748449
H                21.1822423571       38.0305700079       30.8840370684
H                22.3967279515       38.0191524742       29.6003177972
H                21.8867629018       41.1982274172       29.3361832162
H                22.2801707203       40.2006561825       27.9413813643
H                20.7818133193       41.1414342997       27.9634020067
H                29.3051800674       55.7230560750       35.1840475135
H                27.2394623878       57.2011909686       32.9300850532
H                30.8915013533       56.0272253506       30.4290346120
H                27.4356750539       55.8854969100       27.3152240325
H                29.7424427273       52.5369128904       25.6640449501
H                27.1541004559       53.1438970999       23.7193218142
H                25.9351832186       49.0077670379       46.9588561468
H                28.4862461846       42.8005004501       21.9107237469
H                35.8106492017       41.9698728145       29.6208220828
H                35.3652506044       38.9293913714       31.0113817539
H                34.2936422306       40.6196027534       35.3705809757
H                35.5416134139       37.7763751043       36.7699223945
H                23.3149826811       32.7184050500       36.3564022681
H                25.9232823099       34.8090944528       35.5288826572
H                25.1979504801       33.9642969296       30.9843131227
H                28.5700480457       34.0968350736       30.4221107001
H                19.2857240238       35.5630165516       27.9453561956
H                17.2872861727       38.1914893687       28.7001601223
