177
Properties=species:S:1:pos:R:3 pbc="F F F"
N      17.62300000      39.93100000     117.21400000 
C      17.68500000      41.37300000     117.08800000 
C      17.02200000      41.79100000     115.79800000 
O      16.11400000      42.62600000     115.79600000 
C      19.11700000      41.87800000     117.12900000 
H      17.18300000      39.39900000     116.50000000 
H      17.11700000      41.82800000     117.88000000 
H      19.14400000      42.95100000     117.00900000 
H      19.55700000      41.61900000     118.07600000 
H      19.69700000      41.42300000     116.34000000 
N      17.51200000      41.24500000     114.67800000 
C      17.09300000      41.63400000     113.35500000 
C      16.68900000      40.41300000     112.56400000 
O      17.22600000      39.31600000     112.79000000 
C      18.24100000      42.32000000     112.61900000 
C      18.82100000      43.39000000     113.48500000 
O      18.12000000      44.32800000     113.89300000 
N      20.10900000      43.27100000     113.79900000 
H      18.22300000      40.55300000     114.74100000 
H      16.27100000      42.31600000     113.46100000 
H      18.98900000      41.59500000     112.35300000 
H      17.86800000      42.77400000     111.71600000 
H      20.53300000      43.94500000     114.39000000 
H      20.65600000      42.51100000     113.48200000 
N      15.78300000      40.57800000     111.60000000 
C      15.28700000      39.47000000     110.81800000 
C      15.28000000      39.82600000     109.35100000 
O      14.81700000      40.92800000     108.99000000 
C      13.89100000      39.12100000     111.28400000 
O      13.52100000      37.90100000     110.64000000 
H      15.35500000      41.46500000     111.46100000 
H      15.92900000      38.63100000     110.99100000 
H      13.90700000      39.00700000     112.35500000 
H      13.20000000      39.90800000     111.02400000 
H      13.01300000      37.32200000     111.19800000 
N      15.77100000      38.91700000     108.53100000 
C      15.99500000      39.12100000     107.12000000 
C      15.62800000      37.88200000     106.34100000 
O      15.61000000      36.76200000     106.88200000 
C      17.46900000      39.40200000     106.83400000 
C      18.07400000      40.52900000     107.66700000 
C      18.65700000      40.03500000     108.98500000 
C      19.17700000      41.19700000     106.85800000 
H      16.19900000      38.09400000     108.90800000 
H      15.39600000      39.94900000     106.79100000 
H      18.02800000      38.49600000     107.00200000 
H      17.54600000      39.64500000     105.78300000 
H      17.30000000      41.25500000     107.87300000 
H      19.06900000      40.86300000     109.54500000 
H      17.93300000      39.52900000     109.59900000 
H      19.45500000      39.33200000     108.78200000 
H      19.67600000      41.96100000     107.44100000 
H      19.91300000      40.45600000     106.57500000 
H      18.78500000      41.64600000     105.95800000 
N      12.63900000      41.84400000     104.91900000 
C      13.29200000      42.13900000     106.16300000 
C      12.26800000      42.71000000     107.08900000 
O      11.24800000      43.28800000     106.67000000 
C      14.44600000      43.10400000     105.95900000 
H      11.85500000      42.40000000     104.67600000 
H      13.66100000      41.22300000     106.58800000 
H      14.93800000      43.32600000     106.89500000 
H      15.15700000      42.65700000     105.28200000 
H      14.06800000      44.01000000     105.52000000 
N      12.54400000      42.55600000     108.37300000 
C      11.62300000      42.95900000     109.40700000 
C      12.45100000      43.14200000     110.64200000 
O      12.31000000      42.43100000     111.64500000 
C      10.52900000      41.93300000     109.58200000 
H      13.34700000      42.02000000     108.62800000 
H      11.20100000      43.91000000     109.13600000 
H       9.83300000      42.23000000     110.35000000 
H      10.00200000      41.82600000     108.64600000 
H      10.96100000      40.98300000     109.85200000 
N      13.38300000      44.09100000     110.57600000 
C      14.18000000      44.35300000     111.73200000 
C      13.37900000      45.15900000     112.71000000 
O      12.30100000      45.69300000     112.42000000 
C      15.51800000      45.03400000     111.42400000 
C      15.39000000      46.53700000     111.22500000 
C      16.18800000      44.36800000     110.23300000 
C      16.75000000      47.21200000     111.18500000 
H      13.38000000      44.73500000     109.81900000 
H      14.39000000      43.40400000     112.19300000 
H      16.13600000      44.87000000     112.29500000 
H      14.83300000      46.74400000     110.32400000 
H      14.83500000      46.96100000     112.04800000 
H      17.24100000      44.61100000     110.20900000 
H      16.09300000      43.29400000     110.27700000 
H      15.74400000      44.70500000     109.30900000 
H      16.64800000      48.28500000     111.14200000 
H      17.31400000      46.96100000     112.07500000 
H      17.32300000      46.89600000     110.32500000 
N      13.93300000      45.30200000     113.91200000 
C      13.38500000      46.20300000     114.89700000 
C      13.74200000      47.61000000     114.47500000 
O      14.87800000      48.06500000     114.65200000 
C      13.98600000      45.84500000     116.24100000 
C      13.76100000      46.89100000     117.33400000 
C      12.78900000      46.40200000     118.38900000 
C      15.09800000      47.27200000     117.94800000 
H      14.79200000      44.85100000     114.11700000 
H      12.31500000      46.09600000     114.91400000 
H      13.57200000      44.89200000     116.53600000 
H      15.04400000      45.69700000     116.09600000 
H      13.34100000      47.77400000     116.88500000 
H      12.64400000      47.15600000     119.15400000 
H      11.82600000      46.17000000     117.95300000 
H      13.16900000      45.50700000     118.86600000 
H      14.98300000      48.03700000     118.70600000 
H      15.55400000      46.40400000     118.40700000 
H      15.76400000      47.63900000     117.18100000 
N      12.77100000      48.30400000     113.87700000 
C      12.89000000      49.69700000     113.54400000 
C      12.40500000      50.03900000     112.16400000 
O      11.68800000      51.04100000     112.00400000 
H      11.90000000      47.85100000     113.72200000 
H      12.33300000      50.30600000     114.23100000 
H      13.93300000      49.96400000     113.61100000 
N      12.81300000      49.28300000     111.15000000 
C      12.47500000      49.59600000     109.78200000 
C      12.14900000      48.32200000     109.05800000 
O      12.81500000      47.28500000     109.21900000 
C      13.58600000      50.38400000     109.06900000 
C      14.95800000      49.78300000     109.30900000 
C      13.30300000      50.50400000     107.57800000 
H      13.40000000      48.50000000     111.32100000 
H      11.59700000      50.21500000     109.80600000 
H      13.56200000      51.37300000     109.50600000 
H      15.69900000      50.31600000     108.72900000 
H      15.23200000      49.85100000     110.34900000 
H      14.98000000      48.74500000     109.01900000 
H      14.00700000      51.18500000     107.12500000 
H      13.40700000      49.54400000     107.08800000 
H      12.30600000      50.87300000     107.38700000 
N      11.10400000      48.39700000     108.24100000 
C      10.57700000      47.28700000     107.47800000 
C      10.77300000      47.60600000     106.01500000 
O      10.20400000      48.59000000     105.51400000 
C       9.11700000      47.12100000     107.84700000 
C       8.38200000      46.04400000     107.07700000 
C       7.09100000      45.66900000     107.79100000 
C       6.08600000      44.99000000     106.89000000 
N       5.29100000      46.02600000     106.15700000 
H      10.60000000      49.25000000     108.18000000 
H      11.13300000      46.40800000     107.74600000 
H       9.09000000      46.89600000     108.90500000 
H       8.61600000      48.06700000     107.70900000 
H       8.17700000      46.39300000     106.07400000 
H       9.00300000      45.16400000     106.98300000 
H       7.32300000      45.01600000     108.61900000 
H       6.63500000      46.55400000     108.21400000 
H       6.56500000      44.37700000     106.14700000 
H       5.37500000      44.39700000     107.43600000 
H       4.70500000      45.61000000     105.45400000 
H       4.69800000      46.53000000     106.79400000 
H       5.89100000      46.69500000     105.70200000 
N      11.59100000      46.80700000     105.33200000 
C      11.99700000      47.03700000     103.96200000 
C      11.79200000      45.74500000     103.21200000 
O      12.21600000      44.67800000     103.68300000 
C      13.46000000      47.51500000     103.87300000 
C      14.34900000      46.87400000     104.92100000 
C      14.02900000      47.25300000     102.48700000 
H      11.99600000      46.02800000     105.79100000 
H      11.35500000      47.79600000     103.55700000 
H      13.43900000      48.58100000     104.04900000 
H      15.37200000      47.18800000     104.77600000 
H      14.05300000      47.14900000     105.92400000 
H      14.31300000      45.80100000     104.83500000 
H      14.99700000      47.72000000     102.38700000 
H      14.15700000      46.19100000     102.33400000 
H      13.38300000      47.63200000     101.70500000 
H      18.45760929      39.59714314     117.25835013 
H      15.39337068      37.95218408     105.37145202 
H      13.22336043      41.94396779     104.24185206 
H      11.31379509      45.74713767     102.33375431 
