 256 
 
N               124.9040000000       61.4630000000      141.2100000000
C               124.9120000000       62.7930000000      140.5480000000
C               126.2210000000       63.4780000000      140.9490000000
O               126.7800000000       64.2310000000      140.1940000000
C               123.7160000000       63.7100000000      140.9790000000
C               122.3740000000       63.0490000000      140.6370000000
C               123.8200000000       65.0920000000      140.3120000000
C               121.1740000000       63.9220000000      140.9850000000
H               124.2780000000       61.3740000000      141.7930000000
H               124.8280000000       62.6590000000      139.5910000000
H               123.7610000000       63.8310000000      141.9400000000
H               122.3530000000       62.8420000000      139.6900000000
H               122.3040000000       62.2070000000      141.1130000000
H               123.0720000000       65.6430000000      140.5910000000
H               124.6510000000       65.5170000000      140.5760000000
H               123.8030000000       64.9880000000      139.3480000000
H               120.3560000000       63.4570000000      140.7490000000
H               121.1750000000       64.1100000000      141.9370000000
H               121.2260000000       64.7550000000      140.4910000000
N               126.6440000000       63.2580000000      142.1980000000
C               127.8950000000       63.8060000000      142.7180000000
C               129.0090000000       63.2490000000      141.8460000000
O               129.8940000000       63.9960000000      141.3690000000
C               128.0830000000       63.3670000000      144.1470000000
C               127.0560000000       63.8810000000      145.1400000000
C               127.2180000000       63.2400000000      146.5110000000
C               126.1510000000       63.7620000000      147.4630000000
N               126.3850000000       63.2110000000      148.8280000000
H               126.2090000000       62.7840000000      142.7680000000
H               127.8940000000       64.7760000000      142.7000000000
H               128.0750000000       62.3970000000      144.1730000000
H               128.9620000000       63.6510000000      144.4410000000
H               127.1400000000       64.8440000000      145.2220000000
H               126.1640000000       63.7020000000      144.8030000000
H               127.1490000000       62.2750000000      146.4350000000
H               128.1000000000       63.4350000000      146.8650000000
H               126.1730000000       64.7310000000      147.4880000000
H               125.2700000000       63.5060000000      147.1480000000
H               125.7600000000       63.5170000000      149.3830000000
H               126.3470000000       62.3220000000      148.8000000000
H               127.1880000000       63.4640000000      149.1170000000
N               129.0030000000       61.9300000000      141.6400000000
C               129.9960000000       61.2890000000      140.7860000000
C               129.8160000000       61.7400000000      139.3490000000
O               130.7800000000       61.7750000000      138.5780000000
H               128.4300000000       61.3910000000      141.9880000000
H               130.8890000000       61.5110000000      141.0930000000
H               129.9080000000       60.3250000000      140.8430000000
N               128.5860000000       62.1090000000      138.9880000000
C               128.1960000000       62.6000000000      137.6610000000
C               128.5540000000       64.0580000000      137.4350000000
O               128.6280000000       64.4750000000      136.2720000000
C               126.6860000000       62.4710000000      137.4480000000
C               126.0650000000       61.1070000000      137.2020000000
C               124.5420000000       61.2480000000      137.1400000000
C               126.6280000000       60.5420000000      135.9070000000
H               127.9240000000       62.0790000000      139.5360000000
H               128.6900000000       62.0490000000      137.0340000000
H               126.2520000000       62.8490000000      138.2290000000
H               126.4520000000       63.0340000000      136.6930000000
H               126.2780000000       60.4950000000      137.9240000000
H               124.1420000000       60.3780000000      136.9830000000
H               124.2160000000       61.6060000000      137.9800000000
H               124.3020000000       61.8490000000      136.4180000000
H               126.2390000000       59.6700000000      135.7380000000
H               126.4140000000       61.1390000000      135.1730000000
H               127.5910000000       60.4570000000      135.9830000000
N               128.7270000000       64.8290000000      138.5120000000
C               129.1220000000       66.2220000000      138.4000000000
C               130.5840000000       66.0770000000      137.9920000000
O               131.0660000000       66.6780000000      137.0310000000
C               129.0030000000       67.0150000000      139.7010000000
O               129.7260000000       66.3600000000      140.7490000000
C               127.5930000000       67.2020000000      140.1270000000
H               128.6180000000       64.5550000000      139.3200000000
H               128.5570000000       66.7180000000      137.7870000000
H               129.3810000000       67.8910000000      139.5280000000
H               129.3910000000       65.6030000000      140.8900000000
H               127.5690000000       67.7090000000      140.9540000000
H               127.1080000000       67.6840000000      139.4390000000
H               127.1790000000       66.3360000000      140.2670000000
N               131.2650000000       65.2140000000      138.7300000000
C               132.6510000000       64.9030000000      138.4770000000
C               132.6890000000       64.2190000000      137.1090000000
O               133.5900000000       64.4540000000      136.3140000000
C               133.1340000000       63.9550000000      139.5640000000
C               133.0770000000       64.5610000000      140.9550000000
C               132.8690000000       63.5460000000      142.0200000000
O               132.0520000000       63.7400000000      142.9110000000
N               133.5890000000       62.4290000000      141.9460000000
H               130.9280000000       64.7900000000      139.3980000000
H               133.2040000000       65.7000000000      138.4970000000
H               132.5930000000       63.1490000000      139.5470000000
H               134.0460000000       63.6880000000      139.3710000000
H               133.9030000000       65.0400000000      141.1280000000
H               132.3590000000       65.2120000000      140.9900000000
H               134.1550000000       62.3240000000      141.3060000000
H               133.4890000000       61.8120000000      142.5370000000
N               131.6840000000       63.4040000000      136.7890000000
C               131.6610000000       62.7670000000      135.4600000000
C               131.4520000000       63.8560000000      134.3920000000
O               132.0410000000       63.8030000000      133.3200000000
C               130.5470000000       61.7160000000      135.4120000000
H               131.0240000000       63.2080000000      137.3040000000
H               132.5020000000       62.3170000000      135.2850000000
H               130.5340000000       61.2980000000      134.5370000000
H               130.7090000000       61.0410000000      136.0900000000
H               129.6920000000       62.1430000000      135.5790000000
N               130.6220000000       64.8490000000      134.7220000000
C               130.3500000000       65.9450000000      133.7940000000
C               131.7030000000       66.6100000000      133.4940000000
O               132.0200000000       66.8690000000      132.3400000000
C               129.4020000000       66.9640000000      134.4430000000
O               128.8280000000       67.8070000000      133.4790000000
H               130.2090000000       64.9050000000      135.4750000000
H               129.9280000000       65.6190000000      132.9840000000
H               128.7020000000       66.4970000000      134.9260000000
H               129.8890000000       67.4950000000      135.0920000000
H               128.3130000000       68.3540000000      133.8550000000
N               132.5140000000       66.7600000000      134.5450000000
C               133.8550000000       67.3360000000      134.4240000000
C               134.7180000000       66.4620000000      133.5290000000
O               135.3090000000       66.9250000000      132.5660000000
C               134.5470000000       67.4240000000      135.7960000000
C               133.8320000000       68.2220000000      136.8600000000
C               134.3900000000       67.9790000000      138.2380000000
N               133.6350000000       68.7100000000      139.2530000000
C               134.0940000000       68.9630000000      140.4950000000
N               135.2660000000       68.5400000000      140.8760000000
N               133.3240000000       69.6230000000      141.3820000000
H               132.3020000000       66.5310000000      135.3460000000
H               133.7560000000       68.2250000000      134.0480000000
H               134.6770000000       66.5220000000      136.1290000000
H               135.4280000000       67.8090000000      135.6680000000
H               133.8980000000       69.1670000000      136.6500000000
H               132.8890000000       67.9940000000      136.8520000000
H               134.3670000000       67.0300000000      138.4360000000
H               135.3200000000       68.2520000000      138.2650000000
H               132.8510000000       68.9960000000      139.0460000000
H               135.7590000000       68.0920000000      140.3320000000
H               135.5460000000       68.7090000000      141.6710000000
H               132.5360000000       69.8850000000      141.1570000000
H               133.6200000000       69.7830000000      142.1730000000
N               134.7040000000       65.1600000000      133.8070000000
C               135.4650000000       64.1630000000      133.0410000000
C               135.1230000000       64.2370000000      131.5820000000
O               135.9970000000       64.4490000000      130.7360000000
C               135.2600000000       62.7440000000      133.5640000000
C               135.8400000000       62.5530000000      134.9710000000
O               136.4960000000       63.4250000000      135.5020000000
N               135.5500000000       61.4060000000      135.5640000000
H               134.2480000000       64.8230000000      134.4530000000
H               136.4040000000       64.3790000000      133.1570000000
H               134.3120000000       62.5400000000      133.5770000000
H               135.6770000000       62.1140000000      132.9560000000
H               135.8300000000       61.2520000000      136.3620000000
H               135.0820000000       60.8150000000      135.1510000000
N               133.8470000000       63.9670000000      131.2660000000
C               133.3230000000       64.0180000000      129.8950000000
C               133.7100000000       65.3630000000      129.2590000000
O               134.1260000000       65.4110000000      128.1110000000
C               131.7890000000       63.8510000000      129.9060000000
H               133.2560000000       63.7470000000      131.8510000000
H               133.7040000000       63.2940000000      129.3740000000
H               131.4530000000       63.8860000000      128.9970000000
H               131.5590000000       62.9960000000      130.3020000000
H               131.3890000000       64.5660000000      130.4260000000
N               133.5770000000       66.4380000000      130.0300000000
C               133.9500000000       67.7660000000      129.6180000000
C               135.4210000000       67.7480000000      129.2090000000
O               135.7770000000       68.2030000000      128.1240000000
C               133.7840000000       68.7750000000      130.7390000000
C               132.4060000000       69.3550000000      130.7950000000
O               131.7620000000       69.5430000000      129.7710000000
N               131.9620000000       69.6900000000      132.0080000000
H               133.2580000000       66.4040000000      130.8280000000
H               133.3730000000       68.0270000000      128.8830000000
H               133.9860000000       68.3480000000      131.5860000000
H               134.4280000000       69.4910000000      130.6220000000
H               131.1890000000       70.0570000000      132.0970000000
H               132.4490000000       69.5390000000      132.7010000000
N               136.2500000000       67.1800000000      130.0830000000
C               137.6760000000       67.0590000000      129.8460000000
C               137.8250000000       66.3440000000      128.5110000000
O               138.6550000000       66.7190000000      127.6870000000
C               138.3780000000       66.2460000000      130.9230000000
C               138.2120000000       66.8160000000      132.3330000000
O               138.3850000000       68.0520000000      132.5180000000
O               137.9580000000       66.0180000000      133.2370000000
H               135.9930000000       66.8530000000      130.8360000000
H               138.0810000000       67.9400000000      129.8520000000
H               138.0340000000       65.3390000000      130.9070000000
H               139.3240000000       66.1950000000      130.7130000000
N               137.0030000000       65.2980000000      128.3160000000
C               137.0310000000       64.5320000000      127.0700000000
C               136.8070000000       65.4610000000      125.9260000000
O               137.5700000000       65.5040000000      124.9710000000
H               136.4280000000       65.0220000000      128.8930000000
H               137.8840000000       64.0800000000      126.9730000000
H               136.3460000000       63.8450000000      127.0830000000
N               135.8030000000       57.0760000000      128.4330000000
C               135.3100000000       58.1580000000      129.3140000000
C               134.1110000000       57.6040000000      130.0490000000
O               133.1330000000       57.1900000000      129.4310000000
C               135.0140000000       59.4390000000      128.5880000000
C               136.2610000000       59.9370000000      127.8300000000
C               134.5440000000       60.4970000000      129.5530000000
C               137.5260000000       59.9530000000      128.6750000000
H               135.3770000000       56.9830000000      127.6920000000
H               136.0040000000       58.4170000000      129.9400000000
H               134.3090000000       59.2640000000      127.9460000000
H               136.4060000000       59.3710000000      127.0560000000
H               136.0920000000       60.8330000000      127.4990000000
H               134.3570000000       61.3170000000      129.0690000000
H               133.7370000000       60.1940000000      129.9980000000
H               135.2350000000       60.6620000000      130.2140000000
H               138.2690000000       60.2750000000      128.1400000000
H               137.3990000000       60.5390000000      129.4370000000
H               137.7180000000       59.0550000000      128.9870000000
N               134.2010000000       57.5780000000      131.3750000000
C               133.1490000000       57.1010000000      132.2600000000
C               132.0580000000       58.1460000000      132.3880000000
O               132.2980000000       59.2450000000      132.8860000000
C               133.7100000000       56.8080000000      133.6490000000
C               132.6830000000       56.2880000000      134.6730000000
C               132.2030000000       54.8840000000      134.3900000000
O               132.9060000000       54.0880000000      133.7730000000
N               130.9810000000       54.5410000000      134.8250000000
H               134.9010000000       57.8470000000      131.7970000000
H               132.7830000000       56.2870000000      131.8790000000
H               134.4210000000       56.1530000000      133.5640000000
H               134.1120000000       57.6190000000      133.9980000000
H               133.0790000000       56.3140000000      135.5580000000
H               131.9190000000       56.8860000000      134.6860000000
H               130.5020000000       55.1110000000      135.2560000000
H               130.6770000000       53.7510000000      134.6730000000
N               130.8850000000       57.8100000000      131.8530000000
C               129.7560000000       58.7220000000      131.8890000000
C               128.5440000000       58.1390000000      132.5940000000
O               127.6990000000       58.8520000000      133.0740000000
C               129.3260000000       59.1580000000      130.4580000000
C               130.4930000000       59.8250000000      129.7170000000
C               128.8510000000       57.9470000000      129.6850000000
H               130.7270000000       57.0580000000      131.4660000000
H               130.0670000000       59.4900000000      132.3930000000
H               128.6050000000       59.8020000000      130.5320000000
H               130.2040000000       60.0890000000      128.8290000000
H               130.7830000000       60.6090000000      130.2090000000
H               131.2300000000       59.1990000000      129.6440000000
H               128.5830000000       58.2170000000      128.7930000000
H               129.5710000000       57.2990000000      129.6240000000
H               128.0950000000       57.5470000000      130.1420000000
H               124.7888354055       60.8199662663      140.5909323676
H               136.0152259294       66.0718139034      125.9255565269
H               136.6619982612       57.2335723314      128.2155305823
H               128.4365213545       57.1474171267      132.6661924249
