 503 
 
N               201.1410000000       74.2520000000      108.3880000000
C               201.6750000000       73.3020000000      109.3480000000
C               200.8660000000       73.4050000000      110.6560000000
O               200.3240000000       74.4730000000      110.9900000000
C               203.1620000000       73.5810000000      109.6180000000
C               204.0750000000       73.2510000000      108.4580000000
C               204.0650000000       74.0220000000      107.2840000000
C               205.0070000000       72.1970000000      108.5530000000
C               204.9780000000       73.7470000000      106.2530000000
C               205.9110000000       71.9240000000      107.5230000000
C               205.8690000000       72.6920000000      106.3720000000
O               206.7710000000       72.4460000000      105.3470000000
H               201.1230000000       75.0600000000      108.6830000000
H               201.6000000000       72.4050000000      108.9870000000
H               203.2690000000       74.5180000000      109.8440000000
H               203.4420000000       73.0680000000      110.3930000000
H               203.4530000000       74.7160000000      107.1890000000
H               205.0200000000       71.6710000000      109.3200000000
H               204.9850000000       74.2750000000      105.4870000000
H               206.5320000000       71.2370000000      107.6090000000
H               207.2490000000       71.7850000000      105.5470000000
N               220.3450000000       75.8650000000      123.5270000000
C               219.8670000000       76.8700000000      124.4510000000
C               218.3920000000       77.1620000000      124.1870000000
O               218.0570000000       77.7020000000      123.1390000000
C               220.6690000000       78.1540000000      124.2910000000
C               222.1570000000       77.9050000000      124.2160000000
O               222.8000000000       77.9530000000      125.2990000000
O               222.6840000000       77.5850000000      123.1230000000
H               220.5870000000       76.1700000000      122.7600000000
H               219.9740000000       76.5350000000      125.3550000000
H               220.3810000000       78.6130000000      123.4870000000
H               220.4810000000       78.7440000000      125.0380000000
N               214.8670000000       76.7400000000      123.0140000000
C               214.0480000000       75.9700000000      122.0690000000
C               214.5410000000       75.9320000000      120.6480000000
O               215.2040000000       76.8420000000      120.1780000000
C               212.5940000000       76.4390000000      122.1010000000
C               211.9900000000       76.3000000000      123.4650000000
O               212.0290000000       75.1820000000      124.0110000000
O               211.4950000000       77.3110000000      124.0050000000
H               215.0200000000       77.5490000000      122.7640000000
H               214.1230000000       75.0560000000      122.3860000000
H               212.5480000000       77.3660000000      121.8210000000
H               212.0750000000       75.9240000000      121.4640000000
N               214.0980000000       74.8780000000      119.9570000000
C               214.4520000000       74.6210000000      118.5530000000
C               213.5450000000       75.3880000000      117.6220000000
O               212.2990000000       75.4660000000      117.8240000000
C               214.3540000000       73.1300000000      118.2760000000
C               215.4190000000       72.1610000000      118.7840000000
C               215.6950000000       72.3690000000      120.2680000000
C               214.9260000000       70.7160000000      118.5690000000
H               213.5760000000       74.2830000000      120.2940000000
H               215.3610000000       74.9200000000      118.3970000000
H               213.5040000000       72.8300000000      118.6340000000
H               214.3090000000       73.0230000000      117.3130000000
H               216.2390000000       72.3240000000      118.2920000000
H               216.3740000000       71.7410000000      120.5620000000
H               216.0080000000       73.2750000000      120.4150000000
H               214.8800000000       72.2230000000      120.7730000000
H               215.5980000000       70.0940000000      118.8890000000
H               214.1000000000       70.5800000000      119.0580000000
H               214.7700000000       70.5640000000      117.6240000000
N               214.1280000000       75.9580000000      116.5840000000
C               213.4220000000       76.7310000000      115.5920000000
C               213.0200000000       75.8700000000      114.4120000000
O               213.8540000000       75.4440000000      113.6210000000
C               214.2560000000       77.9440000000      115.1760000000
C               214.5380000000       78.9160000000      116.3040000000
C               215.7120000000       78.3810000000      117.1390000000
C               215.9580000000       79.2750000000      118.3400000000
N               217.1620000000       78.8370000000      119.1290000000
H               214.9730000000       75.9020000000      116.4350000000
H               212.5980000000       77.0640000000      115.9810000000
H               215.0990000000       77.6350000000      114.8100000000
H               213.7930000000       78.4140000000      114.4650000000
H               214.7520000000       79.7920000000      115.9470000000
H               213.7510000000       79.0220000000      116.8610000000
H               215.5210000000       77.4770000000      117.4350000000
H               216.5120000000       78.3370000000      116.5920000000
H               216.0830000000       80.1900000000      118.0420000000
H               215.1760000000       79.2680000000      118.9140000000
H               217.4850000000       79.5290000000      119.5860000000
H               216.9280000000       78.1910000000      119.6950000000
H               217.7860000000       78.5310000000      118.5730000000
N               211.7360000000       75.5540000000      114.3210000000
C               211.2060000000       74.7480000000      113.2410000000
C               211.1640000000       75.6540000000      112.0250000000
O               210.8660000000       76.8420000000      112.1500000000
C               209.7810000000       74.2630000000      113.5630000000
C               209.1600000000       73.4240000000      112.4990000000
C               209.3950000000       72.0550000000      112.4000000000
C               208.3230000000       74.0120000000      111.5980000000
C               208.8010000000       71.3180000000      111.3970000000
C               207.7140000000       73.2680000000      110.5920000000
C               207.9480000000       71.9140000000      110.4850000000
H               211.1440000000       75.8060000000      114.8920000000
H               211.7560000000       73.9620000000      113.0970000000
H               209.8030000000       73.7540000000      114.3890000000
H               209.2160000000       75.0360000000      113.7210000000
H               209.9550000000       71.6360000000      113.0130000000
H               208.1560000000       74.9250000000      111.6570000000
H               208.9760000000       70.4070000000      111.3330000000
H               207.1450000000       73.6870000000      109.9880000000
H               207.5420000000       71.4130000000      109.8150000000
N               211.4400000000       75.1080000000      110.8540000000
C               211.4180000000       75.8590000000      109.6300000000
C               210.1680000000       75.4610000000      108.8420000000
O               210.1110000000       74.3690000000      108.2730000000
C               212.7050000000       75.5770000000      108.8340000000
C               212.8850000000       76.5300000000      107.6720000000
O               212.2550000000       76.2920000000      106.6180000000
O               213.6220000000       77.5360000000      107.8420000000
H               211.6470000000       74.2800000000      110.7530000000
H               211.3840000000       76.8120000000      109.8070000000
H               213.4700000000       75.6450000000      109.4260000000
H               212.6840000000       74.6660000000      108.5020000000
N               209.1610000000       76.3300000000      108.8160000000
C               207.9030000000       76.0510000000      108.1380000000
C               207.9470000000       75.9900000000      106.6150000000
O               206.9280000000       76.1630000000      105.9570000000
C               206.8090000000       77.0020000000      108.6110000000
C               207.2880000000       78.4760000000      108.6220000000
O               208.0920000000       78.8510000000      107.7270000000
O               206.9220000000       79.2280000000      109.5310000000
H               209.1910000000       77.1020000000      109.1940000000
H               207.6970000000       75.1400000000      108.4000000000
H               206.0360000000       76.9180000000      108.0320000000
H               206.5240000000       76.7480000000      109.5030000000
N               209.1130000000       75.6850000000      106.0640000000
C               209.2750000000       75.6410000000      104.6030000000
C               210.0050000000       74.3710000000      104.1850000000
O               209.9100000000       73.9360000000      103.0520000000
C               209.9900000000       76.8890000000      104.0060000000
O               209.4350000000       78.1100000000      104.5910000000
C               209.7640000000       76.9410000000      102.4930000000
H               209.8250000000       75.5000000000      106.5100000000
H               208.3760000000       75.6440000000      104.2390000000
H               210.9380000000       76.8250000000      104.2030000000
H               209.8260000000       78.7790000000      104.2660000000
H               210.2110000000       77.7200000000      102.1250000000
H               210.1240000000       76.1390000000      102.0840000000
H               208.8130000000       76.9980000000      102.3090000000
N               210.7290000000       73.7730000000      105.1200000000
C               211.4650000000       72.5400000000      104.8540000000
C               211.2800000000       71.4920000000      105.9790000000
O               211.7920000000       70.3830000000      105.8940000000
C               212.9710000000       72.8100000000      104.6870000000
O               213.4240000000       73.6060000000      105.7860000000
C               213.2550000000       73.5420000000      103.3640000000
H               210.8090000000       74.0670000000      105.9240000000
H               211.0990000000       72.1860000000      104.0280000000
H               213.4430000000       71.9630000000      104.6700000000
H               214.2070000000       73.8710000000      105.6360000000
H               214.2080000000       73.7010000000      103.2800000000
H               212.9520000000       72.9970000000      102.6210000000
H               212.7840000000       74.3900000000      103.3560000000
N               210.5370000000       71.8510000000      107.0450000000
C               210.3210000000       70.9270000000      108.1530000000
C               211.5610000000       70.5800000000      108.9320000000
O               211.5300000000       69.7540000000      109.8590000000
H               210.1580000000       72.6180000000      107.1360000000
H               209.6710000000       71.3140000000      108.7590000000
H               209.9330000000       70.1090000000      107.8050000000
N               212.6420000000       71.2940000000      108.6060000000
C               213.9010000000       71.0870000000      109.2920000000
C               213.8410000000       71.7570000000      110.6710000000
O               213.0120000000       72.6340000000      110.9180000000
C               215.0390000000       71.7360000000      108.5030000000
C               215.2410000000       71.2390000000      107.0890000000
C               216.3770000000       71.9750000000      106.4370000000
C               216.6260000000       71.4970000000      105.0300000000
N               216.8400000000       70.0300000000      105.0190000000
H               212.6590000000       71.8970000000      107.9930000000
H               214.0570000000       70.1330000000      109.3780000000
H               214.8800000000       72.6920000000      108.4700000000
H               215.8650000000       71.6020000000      108.9940000000
H               215.4260000000       70.2870000000      107.0970000000
H               214.4280000000       71.3650000000      106.5750000000
H               216.1810000000       72.9250000000      106.4250000000
H               217.1820000000       71.8580000000      106.9650000000
H               215.8710000000       71.7250000000      104.4650000000
H               217.4020000000       71.9470000000      104.6610000000
H               217.4510000000       69.8230000000      104.4050000000
H               217.1230000000       69.7650000000      105.8200000000
H               216.0740000000       69.6200000000      104.8250000000
N               214.6450000000       71.2280000000      111.5880000000
C               214.7290000000       71.7940000000      112.9110000000
C               216.1080000000       72.4490000000      113.0650000000
O               217.1070000000       71.9190000000      112.5830000000
C               214.5520000000       70.7060000000      113.9610000000
C               213.1350000000       70.1910000000      114.0330000000
C               212.6430000000       69.3060000000      113.0730000000
C               212.2720000000       70.6010000000      115.0540000000
C               211.3350000000       68.8590000000      113.0950000000
C               210.9570000000       70.1730000000      115.0940000000
C               210.4940000000       69.3000000000      114.1070000000
O               209.1730000000       68.8920000000      114.0910000000
H               215.1470000000       70.5420000000      111.4570000000
H               214.0280000000       72.4530000000      113.0350000000
H               215.1500000000       69.9690000000      113.7620000000
H               214.8100000000       71.0540000000      114.8290000000
H               213.2110000000       69.0080000000      112.3990000000
H               212.5870000000       71.1710000000      115.7180000000
H               211.0240000000       68.2730000000      112.4430000000
H               210.3880000000       70.4630000000      115.7700000000
H               208.7700000000       69.2220000000      114.7500000000
N               216.1680000000       73.5790000000      113.7540000000
C               217.4390000000       74.2700000000      113.9870000000
C               217.5600000000       74.6210000000      115.4750000000
O               216.5700000000       74.5800000000      116.2070000000
C               217.5060000000       75.5710000000      113.1540000000
C               217.5630000000       75.3580000000      111.6510000000
C               216.4240000000       75.5490000000      110.8740000000
C               218.7430000000       74.9160000000      110.9990000000
C               216.4610000000       75.3430000000      109.5240000000
C               218.7770000000       74.6890000000      109.6250000000
C               217.6320000000       74.9050000000      108.8940000000
O               217.6400000000       74.6670000000      107.5250000000
H               215.4830000000       73.9680000000      114.0990000000
H               218.1660000000       73.6860000000      113.7210000000
H               216.7300000000       76.1150000000      113.3620000000
H               218.2880000000       76.0760000000      113.4270000000
H               215.6310000000       75.8190000000      111.2770000000
H               219.5130000000       74.7740000000      111.5010000000
H               215.6970000000       75.4960000000      109.0160000000
H               219.5570000000       74.3980000000      109.2110000000
H               218.4050000000       74.4120000000      107.2890000000
N               218.7610000000       74.9450000000      115.9470000000
C               218.9540000000       75.2960000000      117.3530000000
C               220.2740000000       75.9960000000      117.5990000000
O               221.2230000000       75.8750000000      116.7910000000
C               218.8680000000       74.0460000000      118.2130000000
H               219.4770000000       74.9680000000      115.4710000000
H               218.2480000000       75.9160000000      117.5940000000
H               218.9970000000       74.2840000000      119.1440000000
H               217.9960000000       73.6360000000      118.1020000000
H               219.5560000000       73.4190000000      117.9420000000
N               220.3500000000       76.7350000000      118.6980000000
C               221.5540000000       77.4320000000      119.0910000000
C               222.3420000000       76.5130000000      119.9540000000
O               221.8090000000       76.0290000000      120.9590000000
C               221.2540000000       78.6510000000      119.9120000000
C               222.4040000000       79.5760000000      120.0290000000
C               221.9890000000       80.9020000000      120.6920000000
C               222.0130000000       80.7920000000      122.2090000000
N               222.3810000000       82.1090000000      122.8670000000
H               219.6920000000       76.8440000000      119.2410000000
H               222.0260000000       77.7020000000      118.2880000000
H               220.5060000000       79.1240000000      119.5160000000
H               220.9770000000       78.3750000000      120.8000000000
H               223.1070000000       79.1570000000      120.5500000000
H               222.7710000000       79.7530000000      119.1490000000
H               222.5880000000       81.6100000000      120.4070000000
H               221.0980000000       81.1490000000      120.3970000000
H               221.1420000000       80.5050000000      122.5260000000
H               222.6500000000       80.1100000000      122.4730000000
H               222.3850000000       82.0080000000      123.7510000000
H               223.1890000000       82.3620000000      122.5940000000
H               221.7840000000       82.7300000000      122.6430000000
N               224.5590000000       78.4300000000      115.2460000000
C               223.4580000000       77.5360000000      114.9920000000
C               223.8520000000       76.3370000000      114.1980000000
O               224.6240000000       76.4260000000      113.2490000000
C               222.3090000000       78.2720000000      114.3170000000
C               221.5510000000       79.2000000000      115.2480000000
C               222.0660000000       80.4540000000      115.5910000000
C               220.3150000000       78.8310000000      115.7560000000
C               221.3500000000       81.3270000000      116.4520000000
C               219.5890000000       79.6610000000      116.6000000000
C               220.1040000000       80.9090000000      116.9410000000
O               219.4110000000       81.7140000000      117.7960000000
H               224.8170000000       78.8990000000      114.5730000000
H               223.1620000000       77.2120000000      115.8570000000
H               222.6580000000       78.7870000000      113.5730000000
H               221.6910000000       77.6220000000      113.9470000000
H               222.8890000000       80.7200000000      115.2500000000
H               219.9610000000       78.0030000000      115.5250000000
H               221.6990000000       82.1570000000      116.6860000000
H               218.7660000000       79.3860000000      116.9350000000
H               218.6880000000       81.3430000000      118.0060000000
N               222.0610000000       72.3970000000      112.6070000000
C               220.7660000000       71.7920000000      112.3210000000
C               220.6080000000       70.5440000000      113.1610000000
O               221.5600000000       69.8210000000      113.3730000000
C               220.6380000000       71.4570000000      110.8410000000
C               219.2030000000       71.0470000000      110.4720000000
C               219.1170000000       70.2820000000      109.1650000000
O               218.5710000000       69.1690000000      109.2000000000
O               219.5590000000       70.8110000000      108.1170000000
H               222.7140000000       72.1340000000      112.1130000000
H               220.0640000000       72.4240000000      112.5420000000
H               220.9010000000       72.2260000000      110.3110000000
H               221.2480000000       70.7360000000      110.6180000000
H               218.8360000000       70.5010000000      111.1840000000
H               218.6510000000       71.8420000000      110.4110000000
N               219.3910000000       70.2690000000      113.6040000000
C               219.1100000000       69.0820000000      114.4050000000
C               218.0240000000       68.1630000000      113.8810000000
O               216.9410000000       68.6060000000      113.4860000000
C               218.8160000000       69.5090000000      115.8630000000
C               219.9100000000       70.4790000000      116.3400000000
C               217.4110000000       70.1800000000      115.9750000000
H               218.7040000000       70.7630000000      113.4510000000
H               219.9120000000       68.5390000000      114.3510000000
H               218.8150000000       68.7200000000      116.4270000000
H               219.7280000000       70.7480000000      117.2540000000
H               220.7730000000       70.0390000000      116.2990000000
H               219.9200000000       71.2630000000      115.7680000000
H               217.2480000000       70.4390000000      116.8960000000
H               217.3820000000       70.9670000000      115.4080000000
H               216.7290000000       69.5520000000      115.6910000000
N               226.8600000000       77.0920000000      110.6630000000
C               226.3340000000       77.5240000000      109.3900000000
C               226.6670000000       78.9590000000      109.0090000000
O               226.6780000000       79.8560000000      109.8650000000
C               224.8010000000       77.3700000000      109.3590000000
C               224.2920000000       75.9610000000      109.6470000000
C               222.7780000000       75.9180000000      109.4790000000
C               224.9730000000       75.0260000000      108.6350000000
H               226.2570000000       76.9010000000      111.2460000000
H               226.7700000000       76.9480000000      108.7430000000
H               224.4150000000       77.9790000000      110.0080000000
H               224.4790000000       77.6440000000      108.4860000000
H               224.4980000000       75.6890000000      110.5550000000
H               222.4570000000       75.0210000000      109.6630000000
H               222.3660000000       76.5410000000      110.0970000000
H               222.5460000000       76.1640000000      108.5700000000
H               224.6750000000       74.1150000000      108.7840000000
H               224.7390000000       75.2990000000      107.7340000000
H               225.9350000000       75.0730000000      108.7470000000
N               225.7980000000       82.1330000000      108.1800000000
C               224.5560000000       82.8820000000      108.3370000000
C               223.9440000000       82.5930000000      109.6870000000
O               223.1630000000       83.4190000000      110.2140000000
H               226.4250000000       82.3700000000      108.7190000000
H               224.7300000000       83.8320000000      108.2490000000
H               223.9330000000       82.6410000000      107.6330000000
N               224.2630000000       81.4240000000      110.2240000000
C               223.7460000000       81.0020000000      111.5010000000
C               222.3770000000       80.3800000000      111.4510000000
O               222.2410000000       79.1740000000      111.2780000000
H               224.7890000000       80.8550000000      109.8510000000
H               224.3640000000       80.3640000000      111.8910000000
H               223.7180000000       81.7690000000      112.0940000000
N               221.3520000000       81.1850000000      111.6500000000
C               219.9870000000       80.6720000000      111.6400000000
C               219.1650000000       81.2230000000      110.4950000000
O               218.9650000000       82.4400000000      110.3820000000
C               219.2690000000       81.0070000000      112.9650000000
C               217.8520000000       80.4120000000      113.1190000000
C               217.9200000000       78.8960000000      113.0140000000
C               217.2130000000       80.8310000000      114.4370000000
H               221.4190000000       82.0300000000      111.7930000000
H               220.0610000000       79.7110000000      111.5280000000
H               219.8170000000       80.6920000000      113.7010000000
H               219.2090000000       81.9720000000      113.0480000000
H               217.2950000000       80.7570000000      112.4040000000
H               217.0290000000       78.5240000000      113.1110000000
H               218.2810000000       78.6470000000      112.1490000000
H               218.4930000000       78.5480000000      113.7150000000
H               216.3270000000       80.4430000000      114.5050000000
H               217.7590000000       80.5190000000      115.1750000000
H               217.1460000000       81.7980000000      114.4710000000
N               218.6230000000       80.3290000000      109.6490000000
C               217.8090000000       80.8070000000      108.5150000000
C               216.5230000000       81.4590000000      109.0390000000
O               215.8760000000       80.9340000000      109.9110000000
C               217.5310000000       79.5360000000      107.7230000000
C               217.6290000000       78.4750000000      108.7450000000
C               218.7720000000       78.8730000000      109.6360000000
H               218.2420000000       81.4830000000      107.9710000000
H               216.6540000000       79.5560000000      107.3100000000
H               218.1770000000       79.4090000000      107.0110000000
H               216.8040000000       78.4000000000      109.2490000000
H               217.7910000000       77.6110000000      108.3360000000
H               218.6970000000       78.4890000000      110.5230000000
H               219.6300000000       78.5950000000      109.2790000000
N               216.2710000000       82.6670000000      108.5240000000
C               215.1300000000       83.4850000000      108.9060000000
C               213.8130000000       82.7420000000      109.0090000000
O               213.1080000000       82.8470000000      110.0280000000
C               214.9750000000       84.6530000000      107.9690000000
H               216.7730000000       83.0360000000      107.9310000000
H               215.3360000000       83.7890000000      109.8040000000
H               214.2110000000       85.1860000000      108.2390000000
H               215.7760000000       85.2000000000      107.9980000000
H               214.8380000000       84.3270000000      107.0660000000
N               213.5110000000       81.9620000000      107.9760000000
C               212.3030000000       81.1330000000      107.8570000000
C               212.0100000000       80.2520000000      109.0790000000
O               210.8470000000       79.9710000000      109.4060000000
C               212.3630000000       80.2380000000      106.6040000000
O               213.6970000000       79.7730000000      106.3980000000
C               211.8330000000       80.9480000000      105.3530000000
H               214.0260000000       81.8950000000      107.2900000000
H               211.5770000000       81.7730000000      107.7880000000
H               211.7810000000       79.4780000000      106.7600000000
H               213.8020000000       79.0380000000      106.7910000000
H               211.8900000000       80.3490000000      104.5920000000
H               210.9080000000       81.2040000000      105.4940000000
H               212.3650000000       81.7400000000      105.1810000000
N               213.0580000000       79.7800000000      109.7340000000
C               212.9090000000       78.9590000000      110.9200000000
C               212.4600000000       79.7890000000      112.1390000000
O               213.2150000000       79.9840000000      113.1000000000
C               214.2360000000       78.2510000000      111.2160000000
H               213.8740000000       79.9260000000      109.5040000000
H               212.2160000000       78.3020000000      110.7500000000
H               214.1400000000       77.7010000000      112.0090000000
H               214.4790000000       77.6910000000      110.4620000000
H               214.9300000000       78.9120000000      111.3640000000
N               211.2050000000       80.2410000000      112.1180000000
C               210.6490000000       81.0810000000      113.1830000000
C               209.9190000000       80.3090000000      114.2930000000
O               209.8720000000       80.7510000000      115.4460000000
C               209.6370000000       82.0940000000      112.6220000000
O               208.7400000000       81.4170000000      111.7130000000
C               210.3600000000       83.1570000000      111.8560000000
H               210.6500000000       80.0690000000      111.4840000000
H               211.4290000000       81.5120000000      113.5650000000
H               209.1430000000       82.4890000000      113.3580000000
H               208.0940000000       81.0960000000      112.1440000000
H               209.7190000000       83.7940000000      111.5030000000
H               210.9810000000       83.6150000000      112.4440000000
H               210.8490000000       82.7520000000      111.1230000000
N               209.3270000000       79.1860000000      113.9530000000
C               208.5470000000       78.4360000000      114.9180000000
C               209.3240000000       77.8510000000      116.1110000000
O               209.8950000000       76.7620000000      116.0240000000
C               207.7830000000       77.3360000000      114.2220000000
C               206.9060000000       77.8030000000      113.0470000000
C               206.0440000000       79.0100000000      113.3940000000
O               205.1070000000       78.8990000000      114.2080000000
O               206.3140000000       80.0890000000      112.8490000000
H               209.3620000000       78.8370000000      113.1680000000
H               207.9510000000       79.0940000000      115.3090000000
H               208.4150000000       76.6770000000      113.8950000000
H               207.2190000000       76.8900000000      114.8730000000
H               207.4750000000       78.0240000000      112.2930000000
H               206.3330000000       77.0720000000      112.7660000000
N               209.4200000000       78.6230000000      117.1720000000
C               210.0780000000       78.0870000000      118.3780000000
C               209.0750000000       77.0610000000      118.9070000000
O               208.0870000000       77.4030000000      119.5400000000
C               210.3210000000       79.1700000000      119.4320000000
C               211.2830000000       80.2430000000      118.9640000000
O               212.4900000000       80.1770000000      119.2400000000
O               210.8040000000       81.2040000000      118.3330000000
H               209.1290000000       79.4300000000      117.2310000000
H               210.9520000000       77.7160000000      118.1770000000
H               209.4750000000       79.5810000000      119.6680000000
H               210.6700000000       78.7580000000      120.2380000000
N               209.2880000000       75.8020000000      118.5730000000
C               208.3990000000       74.7340000000      118.9810000000
C               208.7570000000       74.0720000000      120.2990000000
O               209.9180000000       74.1600000000      120.7410000000
C               208.3720000000       73.6210000000      117.8830000000
C               207.8880000000       74.2270000000      116.5410000000
C               209.7330000000       73.0080000000      117.7080000000
H               209.9570000000       75.5410000000      118.1000000000
H               207.5360000000       75.1600000000      119.1010000000
H               207.7590000000       72.9240000000      118.1640000000
H               207.8720000000       73.5360000000      115.8610000000
H               206.9960000000       74.5910000000      116.6530000000
H               208.4930000000       74.9340000000      116.2680000000
H               209.6930000000       72.3220000000      117.0240000000
H               210.3650000000       73.6940000000      117.4410000000
H               210.0200000000       72.6120000000      118.5460000000
N               205.9560000000       69.7880000000      114.8400000000
C               205.0870000000       70.3250000000      113.7960000000
C               204.8690000000       69.2570000000      112.7610000000
O               205.8030000000       68.5100000000      112.4680000000
C               205.6510000000       71.5680000000      113.0960000000
C               205.8190000000       72.7880000000      113.9240000000
C               204.5810000000       73.1690000000      114.6900000000
O               204.6160000000       73.3970000000      115.9260000000
N               203.4450000000       73.2550000000      113.9860000000
H               206.7880000000       69.9700000000      114.7240000000
H               204.2550000000       70.5960000000      114.2150000000
H               206.5150000000       71.3370000000      112.7210000000
H               205.0680000000       71.7860000000      112.3520000000
H               206.5470000000       72.6480000000      114.5500000000
H               206.0750000000       73.5270000000      113.3510000000
H               203.4490000000       73.0940000000      113.1410000000
H               202.7110000000       73.4720000000      114.3790000000
H               201.6490254138       74.2461418025      107.6451165230
H               200.7712644246       72.6058087906      111.2495643029
H               221.0608293965       75.4488169030      123.8796753534
H               217.7033032034       76.9128170821      124.8678851561
H               214.4482581811       76.7820215385      123.8095435119
H               223.2888987142       76.2945241726      119.7180950659
H               224.3285213379       79.0150997198      115.8898461805
H               223.4853076603       75.4374681431      114.4354429750
H               222.0066633625       73.2887127660      112.4979317974
H               218.1768419441       67.1752377561      113.8499341085
H               227.3588332313       76.3520140613      110.5464400677
H               226.8802514845       79.1874843173      108.0590954147
H               225.6421322077       81.2587433817      108.3262210539
H               208.0614801312       73.5668764170      120.8099816807
H               205.7154496484       70.1305449888      115.6367424044
H               203.9757525310       69.1613123752      112.3217360274
