 535 
 
N               148.0360000000       71.4500000000      103.5520000000
C               147.3920000000       72.1730000000      102.4700000000
C               148.4420000000       73.0640000000      101.7760000000
O               148.5280000000       73.1530000000      100.5520000000
C               146.2810000000       73.0620000000      103.0980000000
C               145.0390000000       72.2780000000      103.4910000000
C               143.9910000000       73.1590000000      104.1560000000
O               143.9020000000       73.2630000000      105.3770000000
N               143.1410000000       73.8070000000      103.3360000000
H               147.6670000000       71.5610000000      104.3210000000
H               147.0130000000       71.5430000000      101.8380000000
H               146.6360000000       73.5080000000      103.8830000000
H               146.0330000000       73.7540000000      102.4660000000
H               144.6570000000       71.8630000000      102.7020000000
H               145.2880000000       71.5620000000      104.0960000000
H               143.2180000000       73.7230000000      102.4830000000
H               142.5220000000       74.3050000000      103.6640000000
N               149.3230000000       73.6490000000      102.5840000000
C               150.4040000000       74.4990000000      102.0860000000
C               151.2870000000       73.6320000000      101.1450000000
O               151.6330000000       74.0640000000      100.0360000000
C               151.2430000000       75.0710000000      103.2510000000
C               152.2910000000       76.0890000000      102.7940000000
C               151.6180000000       77.2860000000      102.1530000000
N               152.4760000000       78.4860000000      102.0880000000
C               152.5190000000       79.3350000000      101.0670000000
N               151.7560000000       79.1160000000      100.0050000000
N               153.2020000000       80.4600000000      101.1640000000
H               149.3110000000       73.5640000000      103.4400000000
H               150.0380000000       75.2570000000      101.6040000000
H               150.6500000000       75.4920000000      103.8930000000
H               151.6880000000       74.3420000000      103.7110000000
H               152.8230000000       76.3770000000      103.5520000000
H               152.8990000000       75.6750000000      102.1620000000
H               151.3400000000       77.0480000000      101.2550000000
H               150.8140000000       77.5000000000      102.6510000000
H               152.9860000000       78.6470000000      102.7610000000
H               151.2390000000       78.4290000000       99.9810000000
H               151.7780000000       79.6610000000       99.3400000000
H               153.6220000000       80.6470000000      101.8910000000
H               153.2270000000       81.0060000000      100.5000000000
N               151.6070000000       72.4110000000      101.5920000000
C               152.4200000000       71.4820000000      100.8360000000
C               151.8460000000       71.3080000000       99.4420000000
O               152.5530000000       71.5290000000       98.4600000000
C               152.5220000000       70.1200000000      101.5300000000
C               153.1330000000       69.0610000000      100.5950000000
C               153.3170000000       70.1870000000      102.8180000000
H               151.3490000000       72.1060000000      102.3540000000
H               153.3140000000       71.8530000000      100.7780000000
H               151.6150000000       69.8600000000      101.7530000000
H               153.1860000000       68.2110000000      101.0590000000
H               152.5760000000       68.9650000000       99.8070000000
H               154.0230000000       69.3390000000      100.3290000000
H               153.3550000000       69.3060000000      103.2210000000
H               154.2170000000       70.4940000000      102.6270000000
H               152.8880000000       70.8040000000      103.4310000000
N               150.5660000000       70.9480000000       99.3680000000
C               149.8730000000       70.7440000000       98.0850000000
C               150.2500000000       71.7640000000       97.0270000000
O               150.6470000000       71.4010000000       95.9320000000
C               148.3640000000       70.7990000000       98.3000000000
C               147.8400000000       69.7440000000       99.2560000000
C               146.3330000000       69.6890000000       99.1810000000
N               145.7980000000       68.5250000000       99.8910000000
C               144.6650000000       67.9240000000       99.5590000000
N               143.9190000000       68.3320000000       98.5390000000
N               144.2530000000       66.9220000000      100.2870000000
H               150.0700000000       70.8140000000      100.0580000000
H               150.1510000000       69.8730000000       97.7610000000
H               148.1260000000       71.6760000000       98.6390000000
H               147.9200000000       70.6960000000       97.4440000000
H               148.2150000000       68.8780000000       99.0320000000
H               148.1200000000       69.9490000000      100.1620000000
H               145.9600000000       70.5000000000       99.5610000000
H               146.0560000000       69.6570000000       98.2520000000
H               146.2430000000       68.2150000000      100.5590000000
H               144.1670000000       69.0080000000       98.0680000000
H               143.1880000000       67.9200000000       98.3490000000
H               144.7150000000       66.6650000000      100.9660000000
H               143.5200000000       66.5190000000      100.0880000000
N               150.2210000000       73.0330000000       97.4040000000
C               150.5620000000       74.1390000000       96.4980000000
C               151.9680000000       73.9950000000       95.9370000000
O               152.2050000000       74.1390000000       94.7400000000
C               150.4710000000       75.4550000000       97.2690000000
C               149.0910000000       75.7410000000       97.8570000000
C               149.1410000000       76.9570000000       98.7580000000
O               149.2010000000       78.1050000000       98.2490000000
O               149.1230000000       76.7840000000       99.9940000000
H               150.0030000000       73.2860000000       98.1960000000
H               149.9370000000       74.1250000000       95.7560000000
H               151.1220000000       75.4430000000       97.9880000000
H               150.7160000000       76.1830000000       96.6770000000
H               148.4530000000       75.8880000000       97.1420000000
H               148.7820000000       74.9710000000       98.3600000000
N               152.8910000000       73.6530000000       96.8260000000
C               154.3030000000       73.4520000000       96.4810000000
C               154.4200000000       72.3180000000       95.4860000000
O               155.0410000000       72.4700000000       94.4430000000
C               155.1240000000       73.1730000000       97.7210000000
C               155.0930000000       74.3230000000       98.7480000000
C               155.5180000000       73.8300000000      100.1090000000
C               155.9670000000       75.5070000000       98.3110000000
H               152.7180000000       73.5280000000       97.6590000000
H               154.6510000000       74.2620000000       96.0770000000
H               154.7960000000       72.3630000000       98.1420000000
H               156.0430000000       73.0050000000       97.4610000000
H               154.1780000000       74.6400000000       98.7990000000
H               155.4930000000       74.5650000000      100.7420000000
H               154.9140000000       73.1300000000      100.4030000000
H               156.4200000000       73.4780000000      100.0590000000
H               155.9210000000       76.2070000000       98.9800000000
H               156.8860000000       75.2120000000       98.2140000000
H               155.6460000000       75.8500000000       97.4620000000
N               153.6990000000       71.2350000000       95.7600000000
C               153.6810000000       70.0910000000       94.8680000000
C               153.2250000000       70.4880000000       93.4610000000
O               153.7460000000       69.9720000000       92.4680000000
C               152.7670000000       69.0040000000       95.4240000000
H               153.2120000000       71.1460000000       96.4630000000
H               154.5860000000       69.7480000000       94.8060000000
H               152.7620000000       68.2450000000       94.8200000000
H               153.0900000000       68.7230000000       96.2940000000
H               151.8660000000       69.3520000000       95.5120000000
N               152.2630000000       71.4080000000       93.3980000000
C               151.7560000000       71.8700000000       92.1110000000
C               152.8350000000       72.6960000000       91.3840000000
O               153.0700000000       72.5020000000       90.1930000000
C               150.4790000000       72.7050000000       92.2860000000
C               149.9230000000       73.2340000000       90.9640000000
C               149.3780000000       71.8830000000       93.0100000000
H               151.8940000000       71.7730000000       94.0840000000
H               151.5350000000       71.0920000000       91.5760000000
H               150.7330000000       73.4700000000       92.8260000000
H               149.1200000000       73.7520000000       91.1340000000
H               150.5860000000       73.7980000000       90.5360000000
H               149.7090000000       72.4890000000       90.3810000000
H               148.5810000000       72.4270000000       93.1110000000
H               149.1660000000       71.0940000000       92.4870000000
H               149.6980000000       71.6140000000       93.8850000000
N               153.5300000000       73.5570000000       92.1160000000
C               154.5700000000       74.3810000000       91.5010000000
C               155.7870000000       73.5750000000       91.0180000000
O               156.4690000000       73.9990000000       90.0440000000
C               155.0660000000       75.4330000000       92.4980000000
C               154.0890000000       76.5920000000       92.7020000000
C               154.6940000000       77.6820000000       93.5360000000
O               155.2280000000       78.6590000000       93.0120000000
N               154.5920000000       77.5230000000       94.8400000000
H               153.4200000000       73.6810000000       92.9600000000
H               154.1560000000       74.7920000000       90.7260000000
H               155.2310000000       75.0050000000       93.3530000000
H               155.9150000000       75.7860000000       92.1890000000
H               153.8270000000       76.9510000000       91.8400000000
H               153.2830000000       76.2650000000       93.1310000000
H               154.2100000000       76.8220000000       95.1590000000
H               154.9080000000       78.1200000000       95.3720000000
N               156.1070000000       72.5070000000       91.7410000000
C               157.2280000000       71.6830000000       91.4020000000
C               157.1140000000       71.1250000000       89.9940000000
O               158.0940000000       71.0320000000       89.2770000000
C               157.3620000000       70.5590000000       92.3940000000
O               156.1220000000       69.9020000000       92.6250000000
H               155.6740000000       72.2500000000       92.4380000000
H               158.0220000000       72.2390000000       91.4340000000
H               158.0120000000       69.9170000000       92.0680000000
H               157.7040000000       70.9070000000       93.2320000000
H               155.5080000000       70.3140000000       92.2270000000
N               155.9100000000       70.7750000000       89.5770000000
C               155.6410000000       70.1910000000       88.2470000000
C               155.7950000000       71.2010000000       87.0890000000
O               155.2530000000       70.9720000000       85.9980000000
C               154.2680000000       69.5840000000       88.2280000000
H               155.2040000000       70.8670000000       90.0590000000
H               156.3120000000       69.5060000000       88.1010000000
H               154.0950000000       69.2020000000       87.3530000000
H               154.2120000000       68.8880000000       88.9010000000
H               153.6080000000       70.2700000000       88.4170000000
N               156.5400000000       72.2780000000       87.2940000000
C               156.7450000000       73.2870000000       86.2390000000
C               158.1740000000       73.3050000000       85.8040000000
O               159.0230000000       73.8470000000       86.5070000000
C               156.3130000000       74.6720000000       86.7120000000
C               154.8240000000       74.7680000000       86.9570000000
O               154.0920000000       75.2670000000       86.1030000000
N               154.3840000000       74.3330000000       88.1610000000
H               156.9400000000       72.4520000000       88.0350000000
H               156.1920000000       73.0440000000       85.4800000000
H               156.7860000000       74.8920000000       87.5300000000
H               156.5710000000       75.3310000000       86.0490000000
H               153.5510000000       74.3980000000       88.3640000000
H               154.9380000000       73.9910000000       88.7230000000
N               158.4670000000       72.6390000000       84.6780000000
C               159.8290000000       72.5640000000       84.1350000000
C               160.5950000000       73.8830000000       84.0690000000
O               161.7780000000       73.8890000000       83.7790000000
C               159.7860000000       71.9120000000       82.7390000000
O               159.3520000000       70.5780000000       82.7480000000
H               157.8810000000       72.2190000000       84.2090000000
H               160.3260000000       72.0250000000       84.7700000000
H               159.1980000000       72.4300000000       82.1680000000
H               160.6720000000       71.9520000000       82.3460000000
H               159.3480000000       70.2790000000       81.9630000000
N               159.8880000000       75.0060000000       84.2460000000
C               160.5020000000       76.3180000000       84.2250000000
C               161.3740000000       76.5550000000       85.4500000000
O               162.2860000000       77.3500000000       85.4130000000
C               159.4250000000       77.4130000000       84.1400000000
O               158.4430000000       77.1800000000       85.1580000000
C               158.7520000000       77.3670000000       82.7670000000
H               159.0390000000       75.0180000000       84.3810000000
H               161.0690000000       76.3570000000       83.4390000000
H               159.8340000000       78.2830000000       84.2670000000
H               157.8520000000       77.7750000000       85.1190000000
H               158.0730000000       78.0580000000       82.7160000000
H               159.4160000000       77.5150000000       82.0760000000
H               158.3390000000       76.4990000000       82.6380000000
N               161.0150000000       75.9050000000       86.5510000000
C               161.7280000000       76.0260000000       87.8060000000
C               163.0470000000       75.2820000000       87.7440000000
O               163.0910000000       74.0930000000       87.4900000000
C               160.9400000000       75.4580000000       88.9730000000
C               159.5950000000       76.1400000000       89.1650000000
O               159.4090000000       77.2850000000       88.7550000000
N               158.6760000000       75.4420000000       89.8170000000
H               160.3390000000       75.3740000000       86.5860000000
H               161.8690000000       76.9760000000       87.9450000000
H               160.7990000000       74.5090000000       88.8310000000
H               161.4630000000       75.5490000000       89.7850000000
H               157.9040000000       75.7870000000       89.9720000000
H               158.8520000000       74.6440000000       90.0850000000
N               165.3680000000       76.5940000000       92.4030000000
C               163.9580000000       76.9170000000       92.6910000000
C               163.3460000000       75.7330000000       93.4000000000
O               162.7840000000       75.8960000000       94.4830000000
C               163.1960000000       77.2320000000       91.4020000000
C               163.6360000000       78.5440000000       90.7200000000
O               164.0700000000       79.4830000000       91.4270000000
O               163.5030000000       78.6600000000       89.4860000000
H               165.5870000000       76.7270000000       91.5820000000
H               163.9060000000       77.7060000000       93.2530000000
H               163.3150000000       76.4980000000       90.7790000000
H               162.2480000000       77.2840000000       91.6020000000
N               163.5430000000       74.5470000000       92.8310000000
C               163.0480000000       73.2920000000       93.4220000000
C               163.5750000000       73.0810000000       94.8310000000
O               162.8340000000       72.6370000000       95.7210000000
C               163.4590000000       72.1020000000       92.5710000000
C               162.9130000000       71.9760000000       91.1130000000
C               163.5540000000       70.8260000000       90.3190000000
C               161.4190000000       71.7610000000       91.2170000000
H               163.9670000000       74.4410000000       92.0900000000
H               162.0810000000       73.3630000000       93.4560000000
H               164.4280000000       72.1010000000       92.5200000000
H               163.2000000000       71.2990000000       93.0490000000
H               163.1340000000       72.7860000000       90.6270000000
H               163.1760000000       70.7990000000       89.4260000000
H               164.5120000000       70.9680000000       90.2600000000
H               163.3790000000       69.9850000000       90.7690000000
H               161.0410000000       71.6780000000       90.3280000000
H               161.2430000000       70.9510000000       91.7200000000
H               161.0140000000       72.5170000000       91.6700000000
N               164.3400000000       75.4720000000       96.8570000000
C               163.6660000000       76.4720000000       97.6850000000
C               162.2940000000       75.8780000000       98.0690000000
O               161.9300000000       75.8370000000       99.2560000000
C               163.5040000000       77.7920000000       96.9050000000
O               162.7640000000       78.7560000000       97.6630000000
H               164.4390000000       75.7000000000       96.0340000000
H               164.1810000000       76.6770000000       98.4810000000
H               164.3780000000       78.1510000000       96.6870000000
H               163.0500000000       77.6200000000       96.0650000000
H               162.6900000000       79.4650000000       97.2190000000
N               161.5730000000       75.3730000000       97.0700000000
C               160.2790000000       74.7640000000       97.2930000000
C               160.4230000000       73.6900000000       98.3910000000
O               159.7320000000       73.7480000000       99.4030000000
C               159.7700000000       74.0560000000       96.0060000000
C               159.7530000000       75.0340000000       94.8270000000
C               158.4320000000       73.3990000000       96.2240000000
C               159.2510000000       74.4260000000       93.4990000000
H               161.8250000000       75.3770000000       96.2480000000
H               159.6520000000       75.4580000000       97.5500000000
H               160.3900000000       73.3430000000       95.7860000000
H               159.1910000000       75.7900000000       95.0570000000
H               160.6500000000       75.3780000000       94.6940000000
H               158.1450000000       72.9680000000       95.4040000000
H               158.5080000000       72.7360000000       96.9280000000
H               157.7800000000       74.0700000000       96.4810000000
H               159.2700000000       75.1040000000       92.8050000000
H               159.8250000000       73.6870000000       93.2440000000
H               158.3430000000       74.1050000000       93.6130000000
N               161.4100000000       72.8020000000       98.2040000000
C               161.7180000000       71.7200000000       99.1210000000
C               162.0380000000       72.2560000000      100.4990000000
O               161.6070000000       71.6710000000      101.5150000000
C               162.9180000000       70.9270000000       98.5810000000
C               163.2960000000       69.7300000000       99.4680000000
C               162.2320000000       68.6420000000       99.4820000000
O               161.9760000000       68.0140000000       98.4590000000
N               161.6560000000       68.4260000000      100.6610000000
H               161.9280000000       72.8220000000       97.5180000000
H               160.9430000000       71.1410000000       99.1930000000
H               162.7130000000       70.6090000000       97.6880000000
H               163.6820000000       71.5190000000       98.5030000000
H               164.1330000000       69.3530000000       99.1550000000
H               163.4460000000       70.0400000000      100.3750000000
H               161.8790000000       68.9010000000      101.3420000000
H               161.0600000000       67.8110000000      100.7420000000
N               160.8970000000       74.7880000000      101.9400000000
C               159.6330000000       75.1110000000      102.6120000000
C               158.9960000000       73.7960000000      103.0570000000
O               158.7420000000       73.6200000000      104.2540000000
C               158.7030000000       75.9030000000      101.6990000000
C               157.2950000000       76.0830000000      102.2620000000
C               157.2380000000       76.9390000000      103.4930000000
O               156.1790000000       77.5790000000      103.6970000000
O               158.1580000000       76.9140000000      104.3290000000
H               160.9260000000       74.9810000000      101.1020000000
H               159.8000000000       75.6760000000      103.3820000000
H               159.0910000000       76.7770000000      101.5350000000
H               158.6450000000       75.4530000000      100.8420000000
H               156.7310000000       76.4770000000      101.5780000000
H               156.9240000000       75.2110000000      102.4680000000
N               158.8230000000       72.8740000000      102.1100000000
C               158.2370000000       71.5620000000      102.4050000000
C               158.8690000000       70.9060000000      103.6450000000
O               158.1560000000       70.2580000000      104.4340000000
C               158.3980000000       70.6200000000      101.1840000000
C               157.7610000000       71.2260000000       99.9220000000
C               157.7160000000       69.2980000000      101.4840000000
C               157.8420000000       70.2610000000       98.7520000000
H               159.0390000000       72.9880000000      101.2850000000
H               157.2960000000       71.7060000000      102.5930000000
H               159.3460000000       70.4920000000      101.0230000000
H               156.8330000000       71.4480000000      100.0990000000
H               158.2120000000       72.0540000000       99.6940000000
H               157.8130000000       68.7040000000      100.7240000000
H               158.1250000000       68.8930000000      102.2650000000
H               156.7740000000       69.4510000000      101.6560000000
H               157.4350000000       70.6650000000       97.9700000000
H               158.7720000000       70.0580000000       98.5630000000
H               157.3720000000       69.4420000000       98.9740000000
N               157.6220000000       72.4680000000      106.7190000000
C               156.2430000000       71.9580000000      106.8340000000
C               156.2100000000       70.6550000000      107.6010000000
O               155.7050000000       70.5870000000      108.7090000000
C               155.5660000000       71.7730000000      105.4750000000
C               155.0640000000       73.0590000000      104.8390000000
C               154.3350000000       73.9170000000      105.8360000000
N               154.7200000000       75.3260000000      105.7320000000
C               155.0650000000       76.0640000000      106.7880000000
N               155.0920000000       75.5390000000      108.0190000000
N               155.3320000000       77.3550000000      106.6030000000
H               157.8680000000       72.6560000000      105.9160000000
H               155.7440000000       72.6330000000      107.3210000000
H               156.1940000000       71.3500000000      104.8690000000
H               154.8180000000       71.1640000000      105.5790000000
H               155.8130000000       73.5530000000      104.4710000000
H               154.4730000000       72.8470000000      104.0990000000
H               153.3790000000       73.8330000000      105.6960000000
H               154.5200000000       73.5970000000      106.7330000000
H               154.7240000000       75.6940000000      104.9550000000
H               154.8850000000       74.7130000000      108.1390000000
H               155.3170000000       76.0280000000      108.6900000000
H               155.2800000000       77.6960000000      105.8150000000
H               155.5560000000       77.8480000000      107.2710000000
N               158.8920000000       63.0680000000      101.2100000000
C               158.3140000000       63.7960000000      100.0790000000
C               159.3950000000       64.7680000000       99.6190000000
O               159.7180000000       65.6920000000      100.3320000000
C               157.0480000000       64.5730000000      100.5160000000
C               156.6440000000       65.7450000000       99.6020000000
C               155.9070000000       65.2530000000       98.3830000000
C               155.8000000000       66.7330000000      100.3790000000
H               158.7310000000       63.4210000000      101.9770000000
H               158.0450000000       63.1910000000       99.3700000000
H               156.3060000000       63.9500000000      100.5650000000
H               157.1910000000       64.9160000000      101.4120000000
H               157.4490000000       66.1910000000       99.2960000000
H               155.6640000000       66.0080000000       97.8250000000
H               156.4780000000       64.6510000000       97.8810000000
H               155.1040000000       64.7830000000       98.6580000000
H               155.5480000000       67.4690000000       99.8000000000
H               155.0010000000       66.2900000000      100.7050000000
H               156.3100000000       67.0730000000      101.1310000000
N               159.9950000000       64.4550000000       98.4690000000
C               161.1040000000       65.2240000000       97.9140000000
C               160.8550000000       65.4090000000       96.4390000000
O               160.3560000000       64.5110000000       95.7740000000
C               162.4460000000       64.5040000000       98.1390000000
C               163.6160000000       65.2110000000       97.4950000000
O               163.6720000000       65.3910000000       96.2660000000
N               164.5980000000       65.5850000000       98.3000000000
H               159.7650000000       63.7820000000       97.9860000000
H               161.1570000000       66.0840000000       98.3600000000
H               162.6080000000       64.4250000000       99.0920000000
H               162.3860000000       63.6030000000       97.7860000000
H               165.2990000000       65.9640000000       97.9760000000
H               164.5350000000       65.4490000000       99.1470000000
N               161.1400000000       66.5990000000       95.9350000000
C               160.9140000000       66.8910000000       94.5310000000
C               162.1440000000       67.5530000000       93.8850000000
O               162.0190000000       68.1920000000       92.8500000000
C               159.6620000000       67.8060000000       94.2850000000
C               158.3800000000       67.0950000000       94.7300000000
C               159.8180000000       69.1020000000       95.0700000000
H               161.4660000000       67.2520000000       96.3900000000
H               160.7470000000       66.0300000000       94.1170000000
H               159.6000000000       67.9990000000       93.3360000000
H               157.6170000000       67.6730000000       94.5710000000
H               158.2730000000       66.2740000000       94.2250000000
H               158.4370000000       66.8870000000       95.6760000000
H               159.0450000000       69.6680000000       94.9180000000
H               159.8900000000       68.9010000000       96.0160000000
H               160.6190000000       69.5640000000       94.7760000000
N               163.3320000000       67.3370000000       94.4750000000
C               164.5740000000       67.8950000000       93.9940000000
C               165.0950000000       67.0310000000       92.8580000000
O               164.4630000000       66.0280000000       92.4840000000
C               165.6420000000       67.9360000000       95.0880000000
C               165.2440000000       68.7870000000       96.2830000000
C               166.3160000000       68.8260000000       97.3580000000
O               166.6260000000       67.7960000000       97.9590000000
N               166.8370000000       69.9970000000       97.6540000000
H               163.4240000000       66.8510000000       95.1780000000
H               164.3970000000       68.8020000000       93.7000000000
H               165.8230000000       67.0320000000       95.3890000000
H               166.4670000000       68.2810000000       94.7130000000
H               165.0580000000       69.6910000000       95.9840000000
H               164.4220000000       68.4390000000       96.6630000000
H               166.5990000000       70.6970000000       97.2150000000
H               167.4160000000       70.0630000000       98.2870000000
N               166.2870000000       67.3890000000       92.3760000000
C               166.9840000000       66.6790000000       91.3040000000
C               168.4690000000       66.8170000000       91.6670000000
O               168.8850000000       67.8820000000       92.1170000000
C               166.6740000000       67.2940000000       89.9440000000
C               165.2230000000       67.2370000000       89.5290000000
C               164.9360000000       68.0180000000       88.2860000000
O               165.8630000000       68.3910000000       87.5380000000
N               163.6500000000       68.2750000000       88.0220000000
H               166.7220000000       68.0690000000       92.6720000000
H               166.7110000000       65.7510000000       91.2310000000
H               166.9570000000       68.2220000000       89.9520000000
H               167.2060000000       66.8410000000       89.2710000000
H               164.9690000000       66.3120000000       89.3890000000
H               164.6720000000       67.5760000000       90.2520000000
H               163.0380000000       68.0020000000       88.5610000000
H               163.4360000000       68.7130000000       87.3140000000
N               163.0810000000       61.3870000000       93.5890000000
C               161.8570000000       62.1670000000       93.5250000000
C               160.7160000000       61.2310000000       93.8790000000
O               160.7140000000       60.0810000000       93.5320000000
C               161.6230000000       62.7090000000       92.1100000000
O               162.8940000000       63.0820000000       91.5470000000
C               160.7340000000       63.9570000000       92.1600000000
H               163.4510000000       61.2600000000       92.8230000000
H               161.9150000000       62.9210000000       94.1330000000
H               161.1900000000       62.0260000000       91.5740000000
H               162.7800000000       63.3800000000       90.7700000000
H               160.5930000000       64.2900000000       91.2600000000
H               159.8790000000       63.7300000000       92.5580000000
H               161.1670000000       64.6420000000       92.6940000000
N               153.2940000000       62.7220000000       93.7760000000
C               153.1920000000       63.5480000000       94.9950000000
C               151.7430000000       63.8360000000       95.4210000000
O               151.3480000000       63.4070000000       96.5130000000
C               153.9460000000       64.8300000000       94.5770000000
C               153.9190000000       64.8450000000       93.0980000000
C               154.1150000000       63.3910000000       92.7690000000
H               153.5600000000       63.1110000000       95.7780000000
H               153.5180000000       65.6210000000       94.9410000000
H               154.8570000000       64.8220000000       94.9090000000
H               153.0790000000       65.1850000000       92.7530000000
H               154.6230000000       65.4000000000       92.7270000000
H               153.8220000000       63.1820000000       91.8680000000
H               155.0470000000       63.1300000000       92.8320000000
N               151.0000000000       64.5050000000       94.5820000000
C               149.5910000000       64.8860000000       94.8460000000
C               148.7300000000       63.7150000000       95.3600000000
O               147.9000000000       63.9110000000       96.2680000000
C               148.9330000000       65.4920000000       93.5930000000
C               149.5980000000       66.8030000000       93.1680000000
C               149.0710000000       67.2530000000       91.8660000000
C               149.3980000000       67.8570000000       94.2390000000
H               151.2860000000       64.7690000000       93.8150000000
H               149.6290000000       65.5520000000       95.5500000000
H               148.9820000000       64.8550000000       92.8630000000
H               147.9920000000       65.6500000000       93.7680000000
H               150.5510000000       66.6550000000       93.0630000000
H               149.5020000000       68.0840000000       91.6120000000
H               149.2500000000       66.5770000000       91.1930000000
H               148.1140000000       67.3940000000       91.9350000000
H               149.8220000000       68.6840000000       93.9620000000
H               148.4490000000       68.0090000000       94.3710000000
H               149.7950000000       67.5530000000       95.0700000000
N               149.7970000000       62.8800000000       98.9330000000
C               149.4160000000       64.0550000000       99.7350000000
C               147.9560000000       63.9770000000      100.1880000000
O               147.6400000000       64.1620000000      101.3650000000
C               149.6610000000       65.4040000000       98.9890000000
C               151.1680000000       65.6780000000       98.8070000000
C               149.0090000000       66.5570000000       99.7190000000
C               151.4360000000       66.9150000000       98.0420000000
H               150.1330000000       63.0840000000       98.1680000000
H               149.9930000000       64.0380000000      100.5140000000
H               149.2560000000       65.3250000000       98.1110000000
H               151.5880000000       65.7440000000       99.6790000000
H               151.5770000000       64.9260000000       98.3510000000
H               149.1760000000       67.3820000000       99.2360000000
H               148.0530000000       66.4040000000       99.7770000000
H               149.3800000000       66.6260000000      100.6130000000
H               152.3940000000       67.0410000000       97.9560000000
H               151.0390000000       66.8430000000       97.1600000000
H               151.0510000000       67.6740000000       98.5080000000
H               148.0174878926       70.5674791038      103.3764603472
H               163.9039918128       75.7686116584       87.9136293804
H               165.9038631174       77.1070970537       92.9124920342
H               164.5263734339       73.3005279997       95.0470926804
H               165.1627964086       75.3146671513       97.1860173927
H               162.5955955711       73.0802078168      100.5978365007
H               161.5692672198       75.2413888885      102.3305064673
H               159.8497939416       71.0005995851      103.8155701106
H               157.7039558784       73.2237762279      107.2007525582
H               156.6068433719       69.8289931923      107.2007149868
H               158.5599437814       62.2317423163      101.2302917275
H               169.0895294151       66.0437203202       91.5366858341
H               163.6808719288       61.8114063261       94.1086469372
H               159.9408849386       61.5674273858       94.4138020715
H               153.7382192623       61.9622352867       93.9642201568
H               148.8391239848       62.8029657776       94.9646703488
H               150.4127882418       62.3985938701       99.3791535379
H               147.2367158114       63.7725812248       99.5240397449
