 311 
 
N                12.5399581363        6.7600335429       13.4802719776
C                13.4321050503        5.9139204109       14.2223474396
C                14.8851355293        6.0339620923       13.7304626362
O                15.1056220448        6.1470494092       12.5585884663
C                12.9394055668        4.4868594603       14.1940928232
O                11.6457192392        4.3158714911       14.6656082397
H                11.8500000697        6.2538186338       13.0428995500
H                12.0969648641        7.4151164175       14.0280065117
H                13.0001741176        7.2458300925       12.7895176695
H                13.4137021985        6.2353989488       15.1947275448
H                13.0142553695        4.1274192185       13.2377455077
H                13.5679835275        3.8841061787       14.7384328226
H                11.1992986453        5.0890684591       14.5323041121
N                15.8421501075        6.0121215062       14.6449096721
C                17.2504143683        6.0974910464       14.3348711592
C                17.6935458528        4.9590698922       13.4142826902
O                17.6763273135        3.8219250186       13.7999104410
C                18.1687213326        6.1301388462       15.5643509362
C                17.9897201197        7.3717833859       16.3930611090
C                19.5994557171        6.0281103226       15.1743089311
C                18.9125623366        7.5001473760       17.5317130983
H                15.6758295934        5.9287641927       15.5573962825
H                17.3500230581        6.9924703548       13.8429214877
H                17.9142076479        5.3126945368       16.1337243498
H                18.0907592931        8.1846430769       15.7777900001
H                17.0243374523        7.4268299353       16.7293887316
H                20.2084103938        6.0210025433       15.9873146137
H                19.7885543453        5.1817681421       14.6453884181
H                19.8669445231        6.8208429381       14.5978270404
H                18.7645246162        8.3625331166       18.0516515334
H                18.7982692810        6.7265748779       18.1814961961
H                19.8779942602        7.4992219682       17.2171191373
N                18.1057424537        5.3033851304       12.1946829059
C                18.5575447383        4.4025010717       11.1745000198
C                19.9814519538        4.7300333705       10.7251138494
O                20.9565090741        4.1665525471       11.1494258748
C                17.6376382614        4.3631925640        9.9527594819
O                16.3246429488        4.0674164668       10.3613489738
C                18.1189851979        3.3997353609        8.9281878499
H                18.1189893477        6.1901725767       11.9114426995
H                18.5478259998        3.4727447552       11.6126882914
H                17.6632290075        5.3032494199        9.5356784603
H                15.7878020863        4.0741516597        9.6360389886
H                17.5189008117        3.4020750883        8.1073983346
H                19.0625120141        3.6148162838        8.6206467036
H                18.1217956723        2.4571968651        9.3070624263
N                22.0961361774       10.2868277475       11.8003313371
C                21.0896295409       10.7729092637       12.7153962203
C                21.4216541197       11.3701536062       14.0659652685
O                20.7642202369       12.2759606397       14.5465080283
C                20.1803632881        9.6811650071       13.1901741086
C                18.7975226852        9.7479260732       12.7083151561
C                18.6783906724        9.7129259990       11.2082826907
O                19.4553726996       10.3733339058       10.5429283330
N                17.7851860605        8.9895182972       10.7321758137
H                22.0511105484        9.3643884415       11.6788394496
H                20.7379506778       11.5186664215       12.1030578210
H                20.5828544521        8.7802276615       12.9212277406
H                20.1943018828        9.6674613036       14.2162803348
H                18.2426656709        8.9902578431       13.1107261491
H                18.3647269522       10.6042920745       13.0634440847
H                17.1752499016        8.4754270337       11.2435197044
H                17.6284686079        8.8995066310        9.8023825947
N                22.0557855214       14.9523018048       15.1823531739
C                20.8289539362       15.6811051146       15.3081041853
C                20.5293340800       15.7942869193       16.7764721944
O                20.3530893485       16.8823725489       17.2988372503
C                19.7363071298       15.1986565980       14.3967432375
C                19.7018992172       15.8240419859       13.0589965661
C                20.1910907063       15.1906920101       11.9384088318
C                19.2445973905       17.1095047647       12.8764552015
C                20.2336677482       15.7931648288       10.7412233110
C                19.2887114556       17.7136761941       11.6752836189
C                19.7856849384       17.0611276685       10.5998119857
H                21.9200965421       14.0406601052       15.0494970034
H                20.9311909416       16.6421580226       14.9641723032
H                19.8284221585       14.1904681443       14.2889645041
H                18.8331630289       15.3384711728       14.8501266519
H                20.5241545265       14.2436409447       12.0497532704
H                18.8733388880       17.5845575360       13.6874009717
H                20.6041886722       15.2940763155        9.9391732232
H                18.9482846821       18.6646242490       11.5751381848
H                19.8222120712       17.5150976226        9.6931358636
N                20.4560497529       14.6948077744       17.4712265308
C                20.1308334903       14.6934016107       18.8590057065
C                21.0889447129       15.1303172773       19.9674677622
O                20.7024820133       15.2121853096       21.1242662980
C                19.5604918731       13.3312073912       19.0919181579
C                18.9385248121       12.7148822555       17.8634977143
C                18.0980274687       11.5445782334       18.1977832347
C                18.1339622079       13.7212878443       17.1363740030
H                20.5632914843       13.8425479793       17.1105977220
H                19.5244653110       15.5184125861       18.9625702483
H                20.2982235936       12.7204211555       19.4554543258
H                18.8599544288       13.3589998737       19.8340428953
H                19.7059313000       12.4021653746       17.2533358850
H                17.6894424241       11.1308773993       17.3646478778
H                18.6317837594       10.8244142263       18.6736590503
H                17.3364701712       11.8259685187       18.8090194053
H                17.7291739804       13.3347865144       16.2912340860
H                17.3785507171       14.0554874215       17.7259299246
H                18.6911102698       14.5249118462       16.8699539098
N                16.3021829876       11.6611026272       21.8562536766
C                15.8203397291       10.3971229279       21.3570311693
C                14.3778554252       10.0691943064       21.7293345172
O                13.7532398919        9.2378290322       21.1212304751
C                16.7098448594        9.1967303021       21.7021411960
C                16.0494536923        7.9191223939       21.3485007535
C                18.0322850683        9.2885099855       21.0343927938
H                17.0369188070       11.5782690080       22.4217741569
H                15.8368698531       10.5317313230       20.3389667969
H                16.8527439332        9.2167430757       22.7205011018
H                16.6214048179        7.1202979637       21.6025691775
H                15.1530051776        7.8180532415       21.8161997309
H                15.8799938604        7.8773781798       20.3475379761
H                18.6312772607        8.5059487008       21.2836422077
H                17.9177600436        9.2802191064       20.0254716174
H                18.5213157151       10.1431493449       21.2838583145
N                13.8548360030       10.7354518538       22.7532909025
C                12.5208472268       10.5492436334       23.2421390435
C                11.5988644656       11.7553062824       23.0374795530
O                10.6109028112       11.7187746562       22.3477996039
C                12.5005369299       10.1177445515       24.6915440957
O                13.3660290215        9.0159556232       24.8413617134
C                11.1275306081        9.8055222288       25.1611902424
H                14.3327111524       11.3829249007       23.2205065055
H                12.1368416876        9.7887118383       22.6675576473
H                12.8452989782       10.9128395722       25.2478198416
H                13.3750856456        8.7734216712       25.7115294280
H                11.1221635628        9.5452164984       26.1432104415
H                10.5010878842       10.5967363169       25.0469914531
H                10.7431521964        9.0281263637       24.6311575258
N                12.2891118173       20.0124199333       10.6034335051
C                13.2693839239       19.2176808274       11.2810712154
C                13.0774144995       17.7202056063       11.1511795555
O                14.0053700775       16.9431308114       11.2316703234
C                13.3923059205       19.5284899693       12.7408443314
C                13.9596852255       18.4306635507       13.5578532540
C                13.1575950462       17.5502176246       14.2213459100
C                15.3032467596       18.1928437147       13.6018619074
C                13.6787995899       16.5073629030       14.8726368211
C                15.8123111456       17.1495726360       14.2532090436
C                14.9947635224       16.3068515609       14.8873530398
H                11.8360948850       20.6062685687       11.1596305112
H                14.1421343386       19.4491149780       10.7928222940
H                13.9560133135       20.3691811029       12.8725579511
H                12.4679008840       19.7739254408       13.0998136694
H                12.1615179680       17.7025309219       14.2069653594
H                15.9107824642       18.8353010844       13.1195589159
H                13.0486252326       15.8734291182       15.3521269820
H                16.8141954865       17.0024512402       14.2621863204
H                15.3846746501       15.5115594418       15.3817584718
N                11.8331230957       17.3098701433       11.0121627147
C                11.4718514591       15.9432468771       10.8617263250
C                11.1986790210       15.6924373772        9.3957787637
O                10.1607462836       15.2251316059        9.0108731252
C                10.3310163576       15.5626844779       11.7583893005
C                10.7135902837       15.3304924282       13.1695594859
C                 9.5921016688       15.0046305358       14.1265515021
O                 8.7225443822       14.1972368499       13.7449443429
O                 9.5768121022       15.5648614043       15.2436668298
H                11.1030480999       17.8863841028       10.9992078402
H                12.2524021693       15.3454845987       11.1608771546
H                 9.6181040576       16.2957261711       11.7150798651
H                 9.8631618764       14.7294300769       11.3897020497
H                11.3999506272       14.5726452323       13.2111502276
H                11.2126083158       16.1496111094       13.5205469791
N                16.2045397490       15.2548153595        7.9758391179
C                17.0039412931       14.2397363697        8.5934235917
C                16.4177727770       12.8380338552        8.4729831546
O                17.1250051650       11.8594314990        8.3776379603
C                17.3143116520       14.5534312524       10.0374723230
O                16.2301956978       14.2964909652       10.8645095346
H                15.3247510595       15.2670159511        8.2779680364
H                17.8866669915       14.2365562494        8.0633896088
H                18.1321049587       14.0186559674       10.3457521315
H                17.6051386427       15.5321430015       10.1217883407
H                16.4554381356       14.5031979490       11.7145888430
N                15.0968450242       12.7243771722        8.4966767721
C                14.4573087473       11.4696866584        8.3871527714
C                13.7494879331       10.8377857200        9.5657465917
O                12.9596626071        9.9281759755        9.4136363713
H                14.5196730381       13.4486739321        8.5906276730
H                13.7810235880       11.5117086480        7.6201859368
H                15.1659998687       10.8034637663        8.0651827913
N                14.0505028680       11.3028330041       10.7618853648
C                13.4186219101       10.8327131467       11.9563486591
C                11.9140030049       10.8389837753       11.6864078198
O                11.4682672676       11.6285084266       10.8882647268
C                13.8359038577       11.6838820274       13.1174111218
C                15.3356551476       11.7761714864       13.2421733652
C                15.7995798186       12.9073815878       14.0871488505
C                15.8513550462       10.4846694447       13.7241548798
H                14.6670259585       11.9869196850       10.9012244936
H                13.7154792235        9.8746227861       12.1800235229
H                13.4217932318       12.6152198084       13.0224504634
H                13.4389565440       11.3239814246       13.9916216803
H                15.7151828029       11.9612004933       12.3058724581
H                16.8128236665       12.9516940148       14.1328990762
H                15.4653811806       13.8005317852       13.7343648364
H                15.4541873973       12.8046843733       15.0330234015
H                16.8610698569       10.4963200501       13.7946102106
H                15.4755578988       10.2828625752       14.6442652347
H                15.5881201600        9.7267588949       13.1028284131
N                11.1276220978        9.9647517774       12.3170356272
C                 9.7003754141        9.8861921683       12.0983982605
C                 8.7406360277        9.9061899104       13.2936185496
O                 8.1150552639       10.8927461209       13.5959266177
C                 9.3626015153        8.7058972967       11.1994662602
C                 9.7588445307        8.9619714015        9.7977320664
C                10.0044698688        7.4706333758       11.7293953203
H                11.4451984186        9.3598010389       12.9464615568
H                 9.5386965797       10.7944825347       11.6462496894
H                 8.3429708515        8.5676721539       11.2171909269
H                 9.5293662615        8.1781764163        9.1947073828
H                 9.2963060996        9.7867036706        9.4219417210
H                10.7612186490        9.1196082390        9.7367647809
H                 9.7776567212        6.6636525134       11.1566446649
H                11.0113325643        7.5815763213       11.7318314498
H                 9.7047064646        7.2707762486       12.6753579748
N                 8.5874969571        8.7482514010       13.9425468002
C                 7.7517217313        8.5629185973       15.0870245461
C                 8.0399383972        9.7100226209       16.0445860982
O                 9.1066464532       10.2406556879       16.0501822901
C                 7.9776864137        7.2394353918       15.7816736685
C                 6.7702619754        6.4445821704       16.1503837111
C                 6.3023504226        5.3205251674       15.5789053492
C                 5.8400962230        6.7313977400       17.2076248251
N                 5.2118936476        4.8961582974       16.1548439685
C                 4.8546852351        5.7156990317       17.1768446143
C                 5.6993977262        7.7128564002       18.1811243875
C                 3.8070789081        5.7163207385       18.0830818994
C                 4.6764252918        7.6797873366       19.0339603361
C                 3.7380153447        6.6883025732       18.9858378855
H                 9.0453120617        7.9791554085       13.6912088173
H                 6.7730247161        8.5765386727       14.7789909615
H                 8.5833854933        6.6665785214       15.1902528452
H                 8.5322236557        7.4154748070       16.6222002111
H                 6.7575849112        4.8716686047       14.7943462400
H                 4.7139875689        4.1309436887       15.9203351238
H                 6.3965333185        8.4410680426       18.2103812020
H                 3.1154103524        4.9825451263       18.0442723322
H                 4.5831139637        8.4036445471       19.7389676149
H                 2.9736840044        6.6903202849       19.6486391718
N                 7.0597691531       10.0559350890       16.8897023705
C                 7.1859666696       11.1039490071       17.8652956109
C                 7.7193402982       10.7026174531       19.2522433067
O                 8.5661976244       11.3478385021       19.8146112973
C                 5.9127880721       11.9423814834       17.9810617568
O                 5.7752606738       12.7475476353       16.8306653368
C                 5.8912618307       12.7656988838       19.2273640786
H                 6.2296058257        9.6348672256       16.8911595032
H                 7.9406970206       11.6926380468       17.4908047646
H                 5.1228751714       11.2867442211       18.0494790694
H                 4.9121105622       12.7459819270       16.5666349160
H                 5.0289067554       13.2963234990       19.3100505772
H                 5.9838390200       12.1926655272       20.0604880809
H                 6.6634737421       13.4217231127       19.2244639081
N                 7.1913005977        9.6210092694       19.8165429907
C                 7.6066073921        9.1026345716       21.0811087335
C                 8.8554683440        8.2244413711       20.9188673412
O                 9.6560934979        8.0672162467       21.7917637470
C                 6.5092243341        8.3662078654       21.8169906170
O                 6.7754823353        8.2300145776       23.1730767716
H                 6.5244785796        9.1174122076       19.4093640057
H                 7.8612421031        9.8984746363       21.6801426700
H                 5.6167918698        8.8492881011       21.6749600331
H                 6.3783402859        7.4497435545       21.3805152707
H                 6.0983570065        7.7785172484       23.5652830092
N                 8.9660895744        7.6104067018       19.7339651165
C                10.0901052603        6.8364441745       19.3890175466
C                11.2202178846        7.8044500055       19.1174690968
O                11.3972392329        8.7188933185       19.8928014807
H                 8.3286609641        7.6883798324       19.0590536384
H                10.3292116254        6.1972350092       20.1534284250
H                 9.9097184767        6.2245742171       18.5893125606
N                11.9793933278        7.6551736465       18.0089031222
C                13.0409224574        8.6313245341       17.7614057995
C                12.5886462683       10.0174227671       17.2427174421
O                11.7646059496       10.1154972834       16.3841134192
C                13.9638088149        7.8908592171       16.8441170267
C                13.7724862755        6.4697068309       17.2145375731
C                12.3094099145        6.4179373866       17.3230619141
H                13.4774276048        8.8984391539       18.6524373051
H                13.7208068730        8.0669250994       15.8628077281
H                14.9341712101        8.2063675591       16.9230216464
H                14.1640089253        5.8034175339       16.5409497730
H                14.2399776072        6.2266616419       18.0958917712
H                11.8584341450        6.3597852154       16.4026392440
H                11.9664528936        5.5914265146       17.8217509279
N                13.2129093773       11.0536817634       17.8102344681
C                13.0321763924       12.4683352638       17.5437368275
C                11.7878870670       12.8978333374       16.7603987296
O                11.0118928177       13.7050077856       17.3179256181
C                14.2430626105       13.0476914618       16.9311803487
O                11.6185907591       12.4508670519       15.6238754515
H                13.8552305829       10.9155962278       18.4677335973
H                12.8431346349       12.8609849867       18.4738182927
H                14.1238604147       14.0365367279       16.7279359926
H                15.0514270603       12.9505139180       17.5371631434
H                14.4471953355       12.5758582405       16.0571095487
H                20.1388168153        5.4454047010       10.0443200775
H                21.9860253012       10.6778730704       10.9972378491
H                22.1991917945       11.0215489805       14.5893293667
H                22.5213551704       15.2668244481       14.4792739402
H                22.0392725745       15.3515222042       19.7485035281
H                16.5498788718       12.1822002518       21.1655265129
H                11.8054679162       12.6245266369       23.4866688110
H                12.6893351164       20.5005471928        9.9619094685
H                11.8931630501       15.9169628336        8.7121997612
H                16.5602935721       16.0634390372        8.1477895909
