 428 
 
N                60.2972300893       54.8896045104       30.1094599819
C                60.8877697987       55.7429542827       29.1123948339
C                61.3239265545       54.8878411776       27.9262716556
O                61.2056384203       55.3570332619       26.7993508811
C                62.0473893742       56.5932108138       29.6521738038
O                61.6388677713       57.5353021237       30.6011429729
H                60.7312960337       54.8424602194       31.0240947071
H                60.1135412095       56.4246806029       28.7265933793
H                62.8173062653       55.9228257498       30.0517014137
H                62.4635145267       57.1631156017       28.8173200285
H                61.3839357760       57.0611177362       31.4094216591
N                59.7582823214       56.1220956528       24.7867888887
C                60.7695730806       56.3717192815       23.7697325831
C                60.5824787296       55.3498558978       22.6601839321
O                60.5199250627       55.7508520012       21.5013039064
C                62.2157145367       56.4600646725       24.3107099724
C                63.0382131352       57.6906050485       23.8498934301
C                63.0355794541       55.2188012133       23.9690060124
C                62.2742970542       58.8595407569       23.2489232563
H                60.0814963192       55.9240252113       25.7261345990
H                60.5067405754       57.3147482238       23.2849574841
H                62.1408648403       56.5040026366       25.3952517663
H                63.5931644643       58.0583398602       24.7150307641
H                63.7734457093       57.3640132723       23.1109287151
H                64.0298261115       55.3178199545       24.3957450631
H                62.5733471038       54.3256930506       24.3759230933
H                63.1341771344       55.1184366689       22.8889089299
H                62.9714138906       59.6618534650       23.0187904569
H                61.7930899129       58.5653262290       22.3181092184
H                61.5372395665       59.2553583618       23.9416177682
N                57.6658787582       56.2020948650       20.6687995632
C                57.9534881230       57.3475440883       19.8509969038
C                59.0803317141       57.0929844906       18.8277005139
O                59.2533348122       57.8675914642       17.8954382906
C                58.3712256359       58.5508574988       20.7095877182
C                57.5941863562       58.6925833872       21.9909473270
C                58.2857176944       58.9562446807       23.1656955353
C                56.2230144607       58.5062006277       22.0760661348
C                57.6311768360       59.2170274900       24.3547897363
C                55.5732222947       58.6468834382       23.2945267421
C                56.2552852719       59.1002713424       24.4084595410
H                58.2087422170       56.1022007034       21.5219003594
H                57.0499838749       57.5817675932       19.2753464673
H                59.4297031276       58.4464078720       20.9610945385
H                58.2647677775       59.4353086613       20.0754166694
H                59.3631998465       58.9473806492       23.1411174819
H                55.6628678806       58.2498596744       21.1887546043
H                58.2002666127       59.4683836932       25.2384348435
H                54.5317340087       58.3851213490       23.3910423339
H                55.7205533908       59.3484605303       25.3124498767
N                59.7632794391       55.9535094011       19.0230387090
C                60.8675209276       55.4830623673       18.2070356930
C                60.4227844524       54.2949893720       17.3247896520
O                61.0430106088       53.9825320231       16.3127529187
C                62.0821400628       55.1792513909       19.0952028873
C                63.3972375289       54.9288078184       18.4064849420
C                64.4472616088       54.3599427806       19.1241511016
C                63.6307818174       55.3240860259       17.1008923832
C                65.6834541304       54.1664140039       18.5408840691
C                64.8633321706       55.1500626135       16.5061256098
C                65.8922332972       54.5564176839       17.2214984606
O                67.1265967441       54.3671747964       16.6768678778
H                59.7473681353       55.5768608802       19.9704664474
H                61.1400987380       56.2740997090       17.5034474406
H                62.2010462647       56.0478916905       19.7526948030
H                61.8473490419       54.3181741300       19.7222234056
H                64.3078443685       54.0945214881       20.1629806782
H                62.8446610209       55.7922816654       16.5366169225
H                66.5069667151       53.7371582386       19.0912727138
H                65.0235700721       55.4789186124       15.4858938236
H                67.1379544692       54.7270831404       15.7809939023
N                58.8243016870       56.0491798693       13.7991270299
C                59.7652485652       56.2641522437       12.7141593823
C                60.2164873962       54.9228190136       12.1359128329
O                60.3951074819       54.7685958764       10.9365327846
C                60.9462346519       57.0405985146       13.3042188191
C                60.8078638216       56.8928243639       14.8194325990
C                59.3760942001       56.4235599227       15.0857789942
H                59.2983420459       56.8149339831       11.8922263933
H                61.8856403897       56.6179559559       12.9440851558
H                60.9201348831       58.0876780760       13.0052238923
H                61.5177771049       56.1389231014       15.1578702296
H                61.0081512756       57.8316188544       15.3326599581
H                59.3950561900       55.5629195286       15.7489580419
H                58.7798175190       57.2091235152       15.5521110518
N                52.1366840124       63.0037315329       27.4294600915
C                52.8248032811       62.7265599913       26.1914133304
C                52.1383542650       61.5354066493       25.5478795636
O                51.7668787156       61.5941160829       24.3838039925
C                54.3139778769       62.4479873228       26.3589503565
C                55.0841063534       63.6526116523       26.9078241216
C                56.5612720687       63.3134697559       27.0749291138
C                54.9208887768       64.8719783672       26.0117737857
H                52.6368925084       62.8680769960       28.3021985087
H                52.6658076109       63.5745959454       25.5124390975
H                54.4305184277       61.6040737578       27.0394808143
H                54.7106442538       62.1650338563       25.3795836338
H                54.6743103475       63.8834993873       27.8896916690
H                57.0910821155       64.1638963294       27.4972065383
H                56.6842586531       62.4659633549       27.7440582226
H                57.0092010946       63.0741242403       26.1139104848
H                55.5732069947       65.6673336413       26.3615210041
H                55.1898442895       64.6129728182       24.9913022893
H                53.8926868176       65.2237671682       26.0352655018
N                49.1612182150       62.6346086938       23.9809954002
C                49.4318754998       63.5014752000       22.8551373922
C                50.0388708688       62.7241799801       21.6947809435
O                49.8677390217       63.1162784145       20.5436723939
C                50.3880378403       64.6511097310       23.2321764728
C                50.9031618769       65.3946702082       22.0010747708
C                49.6844042925       65.6316040601       24.1608503581
H                49.7526234814       62.7308702091       24.8030973982
H                48.4761504632       63.8985366237       22.4901313482
H                51.2324311423       64.1830738060       23.7452068076
H                51.5031031051       66.2455258201       22.3097674178
H                51.5057805663       64.7499494570       21.3691510325
H                50.0731003586       65.7645206491       21.4040513746
H                50.3654411345       66.4233007444       24.4602768669
H                48.8403850082       66.0807841672       23.6446283222
H                49.3268423054       65.1154908959       25.0435282355
N                50.7848371200       61.6671437564       21.9958205796
C                51.3096168710       60.8298634371       20.9397364787
C                50.1152424211       60.0458757967       20.4292232136
O                49.8828211284       59.9989507813       19.2286680774
C                52.5164589735       59.9366291860       21.2848472980
C                53.5310237830       60.7687972395       22.0612500580
C                52.1121720175       58.6422392549       21.9832155271
H                50.9987693900       61.4435729527       22.9596918683
H                51.6140794912       61.4945389356       20.1174901141
H                52.9504611948       59.6591468944       20.3163970450
H                54.4669950171       60.2534315421       22.2338793424
H                53.7475829203       61.6668917736       21.4902676513
H                53.1302159460       61.0400884421       23.0296553692
H                52.9916051285       58.0628253342       22.2422927900
H                51.5386310637       58.8334372492       22.8820420387
H                51.5029922033       58.0351065846       21.3193334879
N                56.8786715817       63.0915486546       13.4266538423
C                57.4698443543       62.0882290406       14.2933258532
C                58.9174012953       62.4195223755       14.6747313050
O                59.3001102585       62.1823091534       15.8168824338
C                57.4413584887       60.7016521466       13.6626141857
H                56.8727937991       62.8694090383       12.4436328086
H                56.9139849569       62.0839148637       15.2408150682
H                57.8325618544       59.9862549258       14.3820019774
H                56.4305674318       60.4059677197       13.3965068669
H                58.0909035006       60.6862970135       12.7914626951
N                59.6966386553       62.9867238330       13.7572041210
C                61.0803998157       63.3244926477       14.0380250015
C                61.1110727652       64.5128516316       14.9956234150
O                61.9626529577       64.6448324874       15.8697562565
C                61.7827969000       63.6528363001       12.7255145809
C                61.7737428904       62.4144351069       11.7452951065
O                61.8058884593       61.2859869674       12.2625534808
O                61.7229223264       62.6901211152       10.5324815138
H                59.4438330722       62.9672798284       12.7782318985
H                61.5882489138       62.4761699354       14.5180950508
H                61.2912204192       64.4894791125       12.2282737221
H                62.8289137557       63.9081157262       12.9037775445
N                60.1303166409       65.3959917172       14.7851067260
C                59.9109552346       66.5774507003       15.5897862639
C                59.4494953784       66.2362376476       17.0077726071
O                59.8147401064       66.9401727548       17.9435132266
C                58.8129028774       67.4379509908       14.9441800995
C                58.6244287757       68.7999724433       15.6200658228
C                59.5491988292       69.8972597386       15.0883607476
N                60.9479673314       69.6430774036       15.3705226239
C                61.7892577947       68.9874291469       14.5796815301
N                61.4825144358       68.6502928470       13.3325703540
N                62.9982212415       68.6752120678       15.0482364245
H                59.5525866354       65.2976004367       13.9551731318
H                60.8591999286       67.1106230863       15.6986703137
H                59.0386912717       67.5505508242       13.8841159381
H                57.8869015240       66.8673837232       15.0326289462
H                57.6036308033       69.1404675101       15.4534233720
H                58.7656142696       68.6854362560       16.6944793035
H                59.4104773056       70.0067465886       14.0139222061
H                59.2851216399       70.8443361317       15.5592630899
H                61.2365607817       69.8032597927       16.3280593680
H                60.6021436970       68.8965632533       12.9117401469
H                62.1645129929       68.1755846812       12.7641696222
H                63.2458322470       68.8799931133       16.0023299090
H                63.6539185479       68.1561022915       14.4852835124
N                58.5916484576       65.2293726673       17.0848368900
C                57.9829436535       64.6971253851       18.2809925075
C                58.9626517357       63.7768974160       18.9862655799
O                58.9031692573       63.5915892886       20.1930645926
C                56.7185241618       63.9154532319       17.9135176263
C                56.0679533590       63.1150959073       19.0491122944
C                55.3269757385       64.0092197463       20.0356675704
C                55.1121042618       62.1019063071       18.4243880497
H                58.3215456495       64.7868604568       16.2120750656
H                57.7182903253       65.5029860755       18.9750800385
H                55.9989254965       64.6283209436       17.5096537858
H                56.9958996728       63.2182971672       17.1237203298
H                56.8358242318       62.5678838478       19.6027701800
H                54.6785204831       63.4052390675       20.6657095093
H                56.0295684580       64.5346783117       20.6716178759
H                54.7137719518       64.7382767585       19.5157945017
H                54.4988002314       61.6243526739       19.1843231998
H                54.4470052453       62.5922145287       17.7237075854
H                55.6740038988       61.3464206227       17.8831943210
N                59.8819119593       63.2076303942       18.2038547838
C                60.9166942902       62.3545459060       18.7584554988
C                61.9547952642       63.2829437194       19.3704208671
O                62.3602266614       63.1090304253       20.5145165544
C                61.4958826558       61.4395986384       17.6872630538
C                62.3938733276       60.3272697528       18.1660906555
C                62.9719055258       59.5130165610       17.1951373911
C                62.6615546622       60.0543926429       19.4997935634
C                63.8111283994       58.4744477874       17.5448526961
C                63.4839360771       58.9939841343       19.8516334298
C                64.0639082510       58.2024751713       18.8791756824
H                59.7073050459       63.1006599714       17.2090376244
H                60.5009798485       61.7475034448       19.5721609168
H                60.6480448244       60.9814600383       17.1718172431
H                62.0386990324       62.0458922538       16.9554717094
H                62.7570510953       59.6959670795       16.1504894275
H                62.2412317651       60.6723494016       20.2770973027
H                64.2698759956       57.8761399630       16.7742376099
H                63.6810452770       58.7866900506       20.8918635518
H                64.7030220384       57.3749869214       19.1488714709
N                62.3146144317       64.3347570536       18.6355809964
C                63.1587325153       65.3504059328       19.2348926701
C                62.3993329792       65.9988648699       20.3958040853
O                62.9210111589       66.0598035616       21.5047038137
C                63.6517289166       66.4079339380       18.2459140652
C                65.0092922277       66.1160496859       17.5716886353
C                65.6099951572       67.4341025575       17.0782755924
C                66.0081739999       65.4406641948       18.5075183015
H                62.1144568071       64.3784613286       17.6398793520
H                64.0103601850       64.8574654046       19.7157609740
H                62.8917162678       66.5258921580       17.4737652141
H                63.7539646837       67.3424027436       18.8016611199
H                64.8412191728       65.4516307246       16.7189693808
H                66.6193185984       67.2730117645       16.7103789538
H                65.0253062266       67.8501110032       16.2686853938
H                65.6608337934       68.1548135777       17.8918728037
H                66.9988907861       65.4475978770       18.0611706897
H                66.0659292516       65.9673625268       19.4581273803
H                65.7406886260       64.4001768497       18.6782476234
N                61.1853063258       66.4943122197       20.1736538079
C                60.4507435310       67.1381814170       21.2516062275
C                60.3678110540       66.1870972783       22.4365459898
O                60.7039998938       66.5668174562       23.5517942304
C                59.0638300887       67.6040283915       20.7799000580
C                58.0402112133       67.6852265761       21.8802294829
C                57.7575767590       68.8745335837       22.5402932546
C                57.3039042427       66.5551840034       22.2057363010
C                56.7507452842       68.9323613590       23.4843042803
C                56.2932090059       66.5977318881       23.1444994484
C                56.0049786169       67.7958012064       23.7879903264
O                55.0106495855       67.9210021502       24.7078243760
H                60.7691814931       66.5621539870       19.2460300433
H                61.0207988912       68.0003779682       21.6239626604
H                59.1682575546       68.5790974068       20.3070570187
H                58.7088171004       66.8979838950       20.0314227563
H                58.3165169339       69.7688080796       22.3102180786
H                57.5230779236       65.6239274946       21.7069032137
H                56.5055313433       69.8539474150       23.9892860506
H                55.7197223473       65.7049463345       23.3449777060
H                54.5449423495       67.0817942471       24.8221127668
N                59.9179387658       64.9580970000       22.2108485829
C                59.8268510448       64.0346449237       23.3164012895
C                61.1904511517       63.8768559747       23.9637717015
O                61.3021697851       63.9304749825       25.1834058115
C                59.3561336550       62.6244483896       22.9299467337
C                59.8251490325       61.6398834813       23.9948007217
C                57.8408556365       62.5348541167       22.7993261627
H                59.6480792137       64.6167418545       21.2937576759
H                59.1617337357       64.4584515231       24.0840542693
H                59.8147657930       62.3645612978       21.9731510820
H                59.5053194159       60.6519806044       23.7223739879
H                60.9056256868       61.6259524685       24.0883428304
H                59.3832745989       61.8880588609       24.9564188048
H                57.5671684368       61.5627299383       22.3973680335
H                57.3779831383       62.6465141864       23.7759182127
H                57.4649688318       63.3009262041       22.1335179957
N                62.2116228216       63.5661816643       23.1704350494
C                63.5020098866       63.2429869196       23.7432898416
C                63.9847906632       64.4442058321       24.5420557596
O                64.3979616441       64.3121885904       25.6917088231
C                64.5140148066       62.8397353283       22.6587029460
C                65.9211188660       63.2942943709       22.9463733589
C                66.6415897826       63.9700429134       21.9689716297
C                66.5256533874       63.0582221198       24.1762914883
C                67.9151021750       64.4463133483       22.2239067674
C                67.7915423206       63.5514028590       24.4415050695
C                68.4843234637       64.2543517166       23.4705562365
H                62.1158718511       63.4684680848       22.1659476823
H                63.3720001803       62.4311465166       24.4748320674
H                64.4888066942       61.7535935677       22.5466858803
H                64.1922952215       63.2739284687       21.7135208000
H                66.2063115780       64.1129987271       20.9923725079
H                66.0010842576       62.4971736790       24.9361897806
H                68.4578896697       64.9742308437       21.4536524037
H                68.2398621904       63.3931460020       25.4118049731
H                69.4683094456       64.6403373179       23.6866301350
N                63.9286417088       65.6109607020       23.9257926798
C                64.2755515655       66.8537311504       24.5808912442
C                63.4687425875       66.9719260771       25.8709730119
O                64.0293639568       67.1497843691       26.9598491373
C                64.0122288780       68.0105189037       23.6050586688
C                63.6071890646       69.3115348432       24.2425903783
C                62.5732712140       70.0552199977       23.6841436872
C                64.2578047718       69.8079508989       25.3655377067
C                62.1957003680       71.2673519474       24.2323111345
C                63.8708481052       71.0127698650       25.9275072963
C                62.8454399783       71.7481370837       25.3563957416
H                63.5745728833       65.6722903021       22.9766327657
H                65.3314840283       66.8135246230       24.8830356797
H                64.9208911256       68.1559468426       23.0155752894
H                63.2158193313       67.6982013213       22.9289292351
H                62.0658833363       69.6863077225       22.8044454715
H                65.0708350902       69.2513052961       25.8080851810
H                61.3901572282       71.8329329686       23.7885396364
H                64.3689218278       71.3720049251       26.8170975581
H                62.5571549448       72.6946067159       25.7872371301
N                62.1590138073       66.8578598158       25.7573658800
C                61.3087008482       66.9898819585       26.9153226890
C                61.6412456708       65.9353101379       27.9703031691
O                61.7290865630       66.3135346491       29.1376802264
C                59.8212704893       66.9878923287       26.5375029467
C                58.9530529165       67.0013806193       27.7928310507
C                59.4830477845       68.2249867603       25.7110371842
H                61.7105480326       66.6810756348       24.8605533682
H                61.5351353580       67.9481955969       27.4097069337
H                59.6266035541       66.0856896456       25.9519715803
H                57.9042897080       66.9941658679       27.5108782199
H                59.1579272778       66.1538580864       28.4399884624
H                59.1460983383       67.9043448231       28.3678608227
H                58.4399370390       68.1824715559       25.4099175533
H                59.6459184988       69.1146738145       26.3132745032
H                60.0897801881       68.2939987694       24.8157228026
N                61.7943850285       64.6661381703       27.6172782570
C                62.0445207823       63.6177080169       28.5982776675
C                63.4317845435       63.8386087761       29.1856610627
O                63.6788343162       63.7868351437       30.3885920275
C                61.8390467696       62.1943440198       28.0236309295
C                61.2542201444       61.2363052457       29.0798868712
C                63.0999912830       61.5992703038       27.3943781579
C                62.0195661572       61.1886370406       30.3956447973
H                61.6649897818       64.3869543175       26.6505230211
H                61.3254410625       63.7631783624       29.4073373918
H                61.0903649776       62.2997705854       27.2314655339
H                60.2212140207       61.5194427109       29.2897856739
H                61.2483227012       60.2291838286       28.6588746903
H                62.8617221713       60.6594928000       26.9005035756
H                63.5155561085       62.2819459451       26.6605933721
H                63.8677779834       61.3986773654       28.1379069737
H                61.6499329943       60.3730635293       31.0108633228
H                63.0788668429       61.0232868209       30.2214887583
H                61.9156594660       62.1161377126       30.9510055978
N                64.3711999835       64.1261749831       28.2894074350
C                65.7074983546       64.3911101446       28.7429570016
C                65.6593104179       65.5297176363       29.7522254408
O                66.4434388262       65.5292917776       30.6913278369
C                66.6993821980       64.6895264245       27.6184679748
S                67.0715420317       66.4573387829       27.3502640599
H                64.1738280294       64.1957619322       27.2971839141
H                66.0656997739       63.5076821026       29.2959615052
H                67.6707278051       64.2609954582       27.8589960623
H                66.3329466389       64.2869388396       26.6771164632
H                65.8252793961       66.8342406375       27.0327721905
N                64.7290782802       66.4734694739       29.5728560119
C                64.7262067104       67.6655848956       30.3918973611
C                63.8328236085       67.5366642486       31.6263300006
O                64.1919218609       68.0565332953       32.6805223892
C                64.2989693455       68.8916646074       29.5623730793
O                64.7015420417       70.1014894746       30.1366411702
H                64.2425094643       66.5463767852       28.6828202918
H                65.7434210444       67.8401828694       30.7725971802
H                64.7838598811       68.8386713891       28.5844360076
H                63.2097458016       68.8685439272       29.4236565845
H                64.4207322407       70.1361306400       31.0628266221
N                62.6920754802       66.8709892752       31.4967688437
C                61.8322722540       66.6175478493       32.6355190414
C                62.4779502525       65.5609007605       33.5278744948
O                62.2279322900       65.5295478734       34.7282904517
C                60.3981111375       66.1495472519       32.2837149882
C                60.4537965318       64.7277957005       31.7064666946
C                59.7149865174       67.1782561669       31.3885939618
C                59.2163292479       64.2892937084       30.9334821809
H                62.3902898313       66.5732957607       30.5727751287
H                61.7654573385       67.5413472258       33.2244576517
H                59.8591626297       66.1130998445       33.2367354613
H                61.3173107223       64.6734190519       31.0480397199
H                60.6223592144       64.0296165682       32.5286319912
H                58.6994327497       66.8889822852       31.1323663063
H                59.6717123266       68.1262261388       31.9170216531
H                60.2761429840       67.3054647879       30.4709304689
H                59.2692572103       63.2237597349       30.7217934156
H                58.3096091719       64.4676274799       31.5023626897
H                59.1500432009       64.8259057870       29.9920273699
N                63.2667586156       64.6945067391       32.8979877128
C                64.0788281959       63.6893749186       33.5297297832
C                65.3978222387       64.2706112245       34.0264033746
O                65.8607743480       63.9028794863       35.0925845374
H                63.3721706706       64.7449228684       31.8915084427
H                63.5866750807       63.2814042307       34.4198137708
H                64.2602802074       62.8905807473       32.8076606440
N                65.9856276762       65.2406859961       33.3081941962
C                67.1527445509       65.8898560519       33.8826078180
C                66.6655761267       66.7201976683       35.0654528685
O                67.2996633303       66.7789658961       36.1108041850
C                67.9959805038       66.7267732513       32.8940034437
O                69.3546313094       66.4633147708       33.2037474124
C                67.6955069078       68.2246414054       32.9516901877
H                65.8116297847       65.3780159793       32.3193346167
H                67.8301594058       65.1290202134       34.2968457962
H                67.7906292674       66.3562452709       31.8858436645
H                69.9119145102       66.9624034856       32.5919155182
H                68.2445238600       68.7459564767       32.1706221217
H                66.6352451751       68.4057709130       32.8086438501
H                67.9939359182       68.6301010754       33.9166871918
H                59.4523387406       55.1550126264       30.2698256294
H                61.6942535518       53.9716979327       28.0796974356
H                59.2261070606       56.8436968130       24.8647713062
H                60.5134439774       54.3773370672       22.8825379902
H                56.8047486466       56.2274674610       20.9292053278
H                59.6139878829       53.7623437066       17.5740620017
H                58.0402368601       56.4432897312       13.5993277208
H                60.3730450513       54.1438497397       12.7431167286
H                51.8797334418       63.8661530192       27.4437983055
H                51.9885624967       60.6993776063       26.0757222157
H                48.3225314504       62.7768607702       24.2748811904
H                49.5184378222       59.5678427771       21.0736677054
H                56.0196990743       63.2226404781       13.6611344712
H                65.8097391412       67.2329829396       34.9976714570
