478
Properties=species:S:1:pos:R:3 pbc="F F F"
N      25.14600000      10.11700000      25.92600000 
C      23.86100000      10.28000000      26.57900000 
C      23.21900000       8.89900000      26.56000000 
O      23.97200000       7.91900000      26.39500000 
C      23.07900000      11.43200000      25.93300000 
C      22.46300000      12.42800000      26.91500000 
C      23.46700000      13.44500000      27.44000000 
C      21.31200000      13.16200000      26.24900000 
H      25.31200000       9.26000000      25.45300000 
H      24.02900000      10.51700000      27.62000000 
H      23.76100000      11.96700000      25.29900000 
H      22.31900000      11.03000000      25.28400000 
H      22.08400000      11.89100000      27.77100000 
H      22.98300000      14.08300000      28.16700000 
H      24.31700000      12.97200000      27.89200000 
H      23.83500000      14.06900000      26.63600000 
H      20.85300000      13.85800000      26.93900000 
H      21.67700000      13.72300000      25.39800000 
H      20.55300000      12.47800000      25.90000000 
N      21.91400000       8.67300000      26.73900000 
C      21.48500000       7.29300000      26.91000000 
C      21.93200000       6.39300000      25.79900000 
O      22.24900000       5.21400000      26.00500000 
C      19.96200000       7.36000000      26.87700000 
C      19.59500000       8.79000000      27.24100000 
C      20.84000000       9.63300000      26.99700000 
H      21.87300000       6.89700000      27.82900000 
H      19.62200000       7.13500000      25.88300000 
H      19.52400000       6.65600000      27.56300000 
H      18.77000000       9.14000000      26.64300000 
H      19.29800000       8.84100000      28.26700000 
H      20.70500000      10.28400000      26.15700000 
H      21.07300000      10.22700000      27.86200000 
N      21.78900000       6.90000000      24.58000000 
C      21.84900000       6.09800000      23.39000000 
C      21.44300000       6.99600000      22.26200000 
O      20.48200000       7.77200000      22.40700000 
H      21.48700000       7.83900000      24.48200000 
H      22.82800000       5.68500000      23.23600000 
H      21.14300000       5.28300000      23.45800000 
N      18.10900000      16.14100000      19.63900000 
C      17.88600000      14.95000000      20.42700000 
C      16.47700000      14.94200000      20.93800000 
O      15.74300000      13.94900000      20.84900000 
C      18.84500000      14.95000000      21.62500000 
C      18.38000000      14.13100000      22.78500000 
C      17.84500000      14.63700000      23.92800000 
C      18.38200000      12.68700000      22.93300000 
N      17.51800000      13.61000000      24.78500000 
C      17.84200000      12.40600000      24.20500000 
C      18.78800000      11.63000000      22.12300000 
C      17.73100000      11.10700000      24.68300000 
C      18.67400000      10.34300000      22.59800000 
C      18.15800000      10.08600000      23.87100000 
H      18.89200000      16.73300000      19.84000000 
H      18.00500000      14.06600000      19.82600000 
H      19.81400000      14.62300000      21.27900000 
H      18.94500000      15.97200000      21.95200000 
H      17.66500000      15.65200000      24.19100000 
H      17.12000000      13.72700000      25.68600000 
H      19.17700000      11.81100000      21.14200000 
H      17.33000000      10.91300000      25.65800000 
H      19.00400000       9.52100000      22.00200000 
H      18.09800000       9.07300000      24.21600000 
N      11.45000000      11.39500000      21.49900000 
C      10.47500000      11.94700000      22.40100000 
C      10.56600000      11.40700000      23.79700000 
O      10.19600000      12.11000000      24.75000000 
H      11.15600000      11.04000000      20.61800000 
H      10.56800000      13.01400000      22.47500000 
H       9.49100000      11.70900000      22.02700000 
N      10.97500000      10.15200000      23.94800000 
C      11.04700000       9.52200000      25.25200000 
C      11.74300000       8.19600000      25.03400000 
O      12.74400000       8.16900000      24.29400000 
C       9.69500000       9.48300000      25.96000000 
C       9.87000000       9.82200000      27.42800000 
C       8.61500000       9.69800000      28.22800000 
O       7.72100000       8.88900000      27.93200000 
N       8.52500000      10.48500000      29.30500000 
H      11.41200000       9.71200000      23.17400000 
H      11.72200000      10.09900000      25.86500000 
H       9.06100000      10.22500000      25.51200000 
H       9.19300000       8.53900000      25.84100000 
H      10.60100000       9.16300000      27.88200000 
H      10.25500000      10.82900000      27.51300000 
H       9.22700000      11.14900000      29.52900000 
H       7.73500000      10.41400000      29.90000000 
N      11.28800000       7.10900000      25.62900000 
C      11.79300000       5.76400000      25.39600000 
C      13.01900000       5.53000000      26.23500000 
O      12.94900000       4.91300000      27.30800000 
C      12.02400000       5.40800000      23.93000000 
C      12.32100000       3.92000000      23.83300000 
C      10.82200000       5.77300000      23.08200000 
H      10.51300000       7.17400000      26.24400000 
H      11.04300000       5.09700000      25.78500000 
H      12.87100000       5.95200000      23.56500000 
H      12.55300000       3.65900000      22.81100000 
H      13.16800000       3.64100000      24.44700000 
H      11.46500000       3.34300000      24.14700000 
H      10.97000000       5.40900000      22.07600000 
H       9.92300000       5.32600000      23.47800000 
H      10.68400000       6.84300000      23.03500000 
N      14.17400000       6.01500000      25.79000000 
C      15.34500000       5.85100000      26.59600000 
C      15.30900000       6.80800000      27.75400000 
O      14.78600000       7.92300000      27.66100000 
C      16.63400000       6.06700000      25.80500000 
C      17.06900000       4.78200000      25.17500000 
O      16.38500000       4.23100000      24.29600000 
N      18.20200000       4.24900000      25.63000000 
H      14.17500000       6.65200000      25.02500000 
H      15.33300000       4.85200000      26.99400000 
H      16.48000000       6.80700000      25.03700000 
H      17.39900000       6.42500000      26.47000000 
H      18.51600000       3.38100000      25.26600000 
H      18.74200000       4.68000000      26.33900000 
N      15.89500000       6.36400000      28.86500000 
C      16.05300000       7.18200000      30.02600000 
C      17.48100000       7.61300000      30.18300000 
O      18.42500000       6.95200000      29.73800000 
C      15.57000000       6.44100000      31.26600000 
C      14.07500000       6.48200000      31.26100000 
O      13.48300000       7.53900000      31.53600000 
N      13.43800000       5.37400000      30.90600000 
H      16.30600000       5.46100000      28.87200000 
H      15.45400000       8.05800000      29.88400000 
H      15.95500000       5.43400000      31.25800000 
H      15.91500000       6.94700000      32.15300000 
H      12.44600000       5.37700000      30.85300000 
H      13.92200000       4.55400000      30.63800000 
N      17.63900000       8.76800000      30.82200000 
C      18.91100000       9.43200000      30.87700000 
C      19.67700000       9.04200000      32.10900000 
O      19.17500000       9.12200000      33.24700000 
C      18.75800000      10.94800000      30.71800000 
C      17.52800000      11.50400000      31.40500000 
C      19.99700000      11.68200000      31.21100000 
H      16.84200000       9.21200000      31.20600000 
H      19.45800000       9.07900000      30.03900000 
H      18.65300000      11.11700000      29.65700000 
H      17.50500000      12.56100000      31.23600000 
H      16.61000000      11.10900000      30.99700000 
H      17.55600000      11.31500000      32.46800000 
H      19.94000000      12.72500000      30.94100000 
H      20.06200000      11.62000000      32.28800000 
H      20.90500000      11.27400000      30.79100000 
N      20.91900000       8.61800000      31.90300000 
C      21.73700000       8.03900000      32.96500000 
C      22.45000000       9.12700000      33.73100000 
O      23.68400000       9.28500000      33.70400000 
C      22.67200000       7.12000000      32.20700000 
C      22.89300000       7.85900000      30.89800000 
C      21.52200000       8.40600000      30.57800000 
H      21.09800000       7.51100000      33.65200000 
H      23.57900000       6.92700000      32.75100000 
H      22.16100000       6.18900000      32.02200000 
H      23.58700000       8.67100000      31.04400000 
H      23.25800000       7.22800000      30.10700000 
H      21.56400000       9.32400000      30.02300000 
H      20.92800000       7.69200000      30.03400000 
N      21.64400000       9.89500000      34.45100000 
C      22.10400000      10.98700000      35.25500000 
C      22.62200000      10.48900000      36.57900000 
O      22.11800000       9.51000000      37.13900000 
C      20.93700000      11.92100000      35.48100000 
H      20.66500000       9.70700000      34.41700000 
H      22.89300000      11.50700000      34.74800000 
H      21.23100000      12.79200000      36.03300000 
H      20.56100000      12.22800000      34.52100000 
H      20.15100000      11.41600000      36.01800000 
N      23.63300000      11.18300000      37.10200000 
C      24.28300000      10.74000000      38.30800000 
C      23.88900000      11.63100000      39.44500000 
O      24.03900000      12.86500000      39.37700000 
C      25.79200000      10.68100000      38.18200000 
C      26.21500000       9.89200000      36.95900000 
C      26.12700000      10.70600000      35.67200000 
N      27.43500000      10.77400000      35.02900000 
C      27.64000000      10.92800000      33.73500000 
N      26.65400000      10.79400000      32.86100000 
N      28.86100000      11.21800000      33.30500000 
H      23.91000000      12.04100000      36.67100000 
H      23.92200000       9.74800000      38.49400000 
H      26.20800000      11.67600000      38.14500000 
H      26.16700000      10.20500000      39.07700000 
H      27.22900000       9.54600000      37.08900000 
H      25.59700000       9.01200000      36.87400000 
H      25.41800000      10.26400000      35.00400000 
H      25.81100000      11.71300000      35.87600000 
H      28.21900000      10.88600000      35.62900000 
H      25.74400000      10.49100000      33.12900000 
H      26.82600000      10.93400000      31.89400000 
H      29.59600000      11.38800000      33.95000000 
H      29.05900000      11.29900000      32.33700000 
N      23.36600000      11.01100000      40.49600000 
C      22.75100000      11.67400000      41.61800000 
C      23.66200000      11.63200000      42.81300000 
O      24.25900000      10.59100000      43.12300000 
C      21.43800000      10.95900000      41.90900000 
C      20.43300000      11.80500000      42.64400000 
S      18.83100000      10.88400000      42.83200000 
C      18.40900000      10.63900000      41.03900000 
H      23.29600000      10.02100000      40.47300000 
H      22.57500000      12.69300000      41.34400000 
H      21.02900000      10.67900000      40.95400000 
H      21.63800000      10.04900000      42.45600000 
H      20.75100000      12.05900000      43.64000000 
H      20.21500000      12.70700000      42.10400000 
H      17.39700000      10.27500000      41.00600000 
H      18.48200000      11.58200000      40.52900000 
H      19.07300000       9.92000000      40.59800000 
N      23.32300000      16.93400000      40.70600000 
C      23.09300000      15.94000000      39.68600000 
C      23.72800000      16.37900000      38.40400000 
O      23.75200000      17.58200000      38.07900000 
C      21.60500000      15.68100000      39.38400000 
C      21.20800000      14.30700000      39.89700000 
C      19.88000000      13.85200000      39.39700000 
O      19.78700000      13.02900000      38.47700000 
N      18.80500000      14.35000000      40.00500000 
H      23.34100000      17.89700000      40.43000000 
H      23.54400000      15.02400000      40.00900000 
H      21.00900000      16.45600000      39.83500000 
H      21.44000000      15.72300000      38.32200000 
H      21.93200000      13.59800000      39.54600000 
H      21.22400000      14.32500000      40.97200000 
H      18.87900000      15.02600000      40.72100000 
H      17.90000000      14.11400000      39.67400000 
N      24.19200000      15.40900000      37.62700000 
C      24.82000000      15.66400000      36.35300000 
C      24.23900000      14.73900000      35.32200000 
O      23.96800000      13.55600000      35.60000000 
C      26.33600000      15.51600000      36.50000000 
C      26.85700000      16.73100000      37.27100000 
C      27.03600000      15.37500000      35.16300000 
C      27.94100000      16.39500000      38.28000000 
H      24.18700000      14.46800000      37.96500000 
H      24.59400000      16.67200000      36.07000000 
H      26.50300000      14.62300000      37.08400000 
H      27.22700000      17.45300000      36.55400000 
H      26.04500000      17.20800000      37.79100000 
H      28.10700000      15.40600000      35.30800000 
H      26.78900000      14.45000000      34.66300000 
H      26.76200000      16.19400000      34.51500000 
H      28.32200000      17.28900000      38.75000000 
H      27.53900000      15.75500000      39.05600000 
H      28.77000000      15.87700000      37.81500000 
N      24.04500000      15.26700000      34.12000000 
C      23.36400000      14.56200000      33.05600000 
C      24.20000000      14.69100000      31.80800000 
O      24.83600000      13.75000000      31.32600000 
C      21.92800000      15.06900000      32.80100000 
C      21.17500000      15.44300000      34.03100000 
C      21.58300000      16.53600000      34.77800000 
C      20.04300000      14.76200000      34.42600000 
C      20.92200000      16.89600000      35.92800000 
C      19.36600000      15.11300000      35.57000000 
C      19.81800000      16.17400000      36.31800000 
O      19.11100000      16.48300000      37.45200000 
H      24.28800000      16.22500000      33.97800000 
H      23.33900000      13.52500000      33.32500000 
H      21.95500000      15.92200000      32.14800000 
H      21.40300000      14.29200000      32.26500000 
H      22.41400000      17.11200000      34.44900000 
H      19.67900000      13.96000000      33.82400000 
H      21.25900000      17.72500000      36.51400000 
H      18.49500000      14.58600000      35.89100000 
H      19.38600000      17.28800000      37.87400000 
N      24.21300000      15.90500000      31.25800000 
C      24.84600000      16.17200000      29.99900000 
C      26.33700000      16.07700000      30.13600000 
O      26.91200000      16.52400000      31.15500000 
C      24.45300000      17.58900000      29.57800000 
C      24.50100000      17.83800000      28.10900000 
C      25.34100000      18.78500000      27.55800000 
C      23.61600000      17.16100000      27.27900000 
C      25.29700000      19.06100000      26.19900000 
C      23.56600000      17.42600000      25.93200000 
C      24.41000000      18.38400000      25.40100000 
O      24.30400000      18.60900000      24.05000000 
H      23.77400000      16.65800000      31.71700000 
H      24.50800000      15.45500000      29.27300000 
H      23.44200000      17.74400000      29.91600000 
H      25.07900000      18.28900000      30.09800000 
H      26.02400000      19.31600000      28.18300000 
H      22.96500000      16.42600000      27.70100000 
H      25.95100000      19.79500000      25.77500000 
H      22.89600000      16.90400000      25.28800000 
H      24.98400000      19.16300000      23.68300000 
N      27.01000000      15.53800000      29.13800000 
C      28.45200000      15.47900000      29.15000000 
C      28.91900000      15.68200000      27.74500000 
O      28.38500000      15.04900000      26.81400000 
C      28.92000000      14.16200000      29.74100000 
O      28.61900000      14.18200000      31.14700000 
C      30.39000000      13.93000000      29.54800000 
H      26.54200000      15.12500000      28.36400000 
H      28.82300000      16.27200000      29.76800000 
H      28.35700000      13.36300000      29.28700000 
H      28.13600000      14.96300000      31.41500000 
H      30.69700000      13.07100000      30.12500000 
H      30.60400000      13.73200000      28.50800000 
H      30.95800000      14.79100000      29.86800000 
N      27.05700000      19.17100000      32.53400000 
C      26.00800000      20.04900000      32.97800000 
C      25.03100000      19.31100000      33.85400000 
O      24.74400000      18.11800000      33.64500000 
C      25.11800000      20.56300000      31.85300000 
C      25.68200000      21.45900000      30.80400000 
C      27.02400000      21.68200000      30.56200000 
C      24.75100000      22.08400000      29.97700000 
C      27.42900000      22.49600000      29.51100000 
C      25.13800000      22.89100000      28.93800000 
C      26.48800000      23.09200000      28.70700000 
O      26.82500000      23.90200000      27.64700000 
H      26.80300000      18.32700000      32.06400000 
H      26.44500000      20.86300000      33.51900000 
H      24.69300000      19.69500000      31.37800000 
H      24.29900000      21.08300000      32.32200000 
H      27.76800000      21.23900000      31.17900000 
H      23.70800000      21.92300000      30.16800000 
H      28.47200000      22.65900000      29.32500000 
H      24.41900000      23.36800000      28.30500000 
H      27.75200000      24.10300000      27.57800000 
N      24.38700000      20.04200000      34.74000000 
C      23.27900000      19.50800000      35.47700000 
C      22.72300000      20.55000000      36.38500000 
O      22.39600000      21.66500000      35.93700000 
H      24.58500000      21.00600000      34.79800000 
H      22.49200000      19.24300000      34.79100000 
H      23.56700000      18.64000000      36.02600000 
N      22.56900000      20.20200000      37.65100000 
C      21.93700000      21.07600000      38.58500000 
C      22.45600000      20.78400000      39.95400000 
O      22.97500000      19.69400000      40.25000000 
C      20.42100000      20.96300000      38.52800000 
C      19.86200000      19.55500000      38.59100000 
C      18.47900000      19.59600000      39.21800000 
N      17.61900000      18.52700000      38.73000000 
C      17.07100000      17.53200000      39.40700000 
N      16.17900000      16.75700000      38.81000000 
N      17.39100000      17.29800000      40.66700000 
H      22.90100000      19.31700000      37.97400000 
H      22.20400000      22.09100000      38.34100000 
H      20.00800000      21.55100000      39.33100000 
H      20.10200000      21.40400000      37.60100000 
H      19.77600000      19.19300000      37.57800000 
H      20.50700000      18.87300000      39.12700000 
H      18.55900000      19.55700000      40.28900000 
H      17.99800000      20.52800000      38.97500000 
H      17.37600000      18.59500000      37.77200000 
H      15.90400000      16.88700000      37.86600000 
H      15.78100000      15.98300000      39.28800000 
H      18.06600000      17.84000000      41.14700000 
H      16.89700000      16.61600000      41.19500000 
N      12.88800000      14.20400000      37.03300000 
C      13.78200000      13.09200000      36.82700000 
C      14.15400000      12.84800000      35.38400000 
O      15.25000000      12.35000000      35.10500000 
C      13.11800000      11.86000000      37.41500000 
O      14.08900000      10.82400000      37.45400000 
H      12.01500000      14.04100000      37.47200000 
H      14.70500000      13.26600000      37.34500000 
H      12.77300000      12.10300000      38.40600000 
H      12.27000000      11.57300000      36.81200000 
H      13.76800000      10.04100000      37.89000000 
N      13.24000000      13.11800000      34.44800000 
C      13.44400000      12.74000000      33.06500000 
C      14.09300000      13.91100000      32.36000000 
O      13.43400000      14.92000000      32.06600000 
C      12.13700000      12.40600000      32.36500000 
C      11.25100000      11.39400000      33.07300000 
C      11.60600000       9.92900000      32.82200000 
N      10.46600000       9.17000000      32.30700000 
C       9.35700000       8.95500000      32.98700000 
N       8.31700000       8.37000000      32.41100000 
N       9.26700000       9.32800000      34.25500000 
H      12.43900000      13.64000000      34.70700000 
H      14.10700000      11.89800000      33.06100000 
H      11.59300000      13.32700000      32.24200000 
H      12.37800000      12.04700000      31.37400000 
H      11.24900000      11.60300000      34.12800000 
H      10.24100000      11.54900000      32.72200000 
H      12.37400000       9.83000000      32.07900000 
H      11.97300000       9.44800000      33.71400000 
H      10.52000000       8.82900000      31.38000000 
H       8.33200000       8.12900000      31.44800000 
H       7.49100000       8.18400000      32.92500000 
H      10.03500000       9.73300000      34.73100000 
H       8.42900000       9.19700000      34.76300000 
N      15.39800000      13.83600000      32.10900000 
C      16.13200000      15.00000000      31.64400000 
C      16.04900000      15.11000000      30.13800000 
O      16.91900000      14.62800000      29.39800000 
C      17.57800000      14.95600000      32.09900000 
C      18.19800000      16.31200000      32.20600000 
C      17.88700000      17.11600000      33.29000000 
C      19.12400000      16.75500000      31.28600000 
C      18.51800000      18.32300000      33.47600000 
C      19.76300000      17.97300000      31.46000000 
C      19.46600000      18.74600000      32.56200000 
H      15.90000000      13.03300000      32.39700000 
H      15.65100000      15.86000000      32.06900000 
H      17.60400000      14.47800000      33.06500000 
H      18.15200000      14.35900000      31.41800000 
H      17.17400000      16.76700000      34.00600000 
H      19.36500000      16.14100000      30.44400000 
H      18.28700000      18.92700000      34.32800000 
H      20.49300000      18.30300000      30.75100000 
H      19.97000000      19.66600000      32.71800000 
N      14.98500000      15.76400000      29.67900000 
C      14.76700000      16.03000000      28.28000000 
C      14.72900000      17.52700000      28.08800000 
O      15.73600000      18.13600000      27.70000000 
C      13.52600000      15.32000000      27.78800000 
O      12.47000000      15.69900000      28.69300000 
C      13.70500000      13.82900000      27.76000000 
H      14.24400000      15.96900000      30.31400000 
H      15.61600000      15.66700000      27.73300000 
H      13.28300000      15.69100000      26.80800000 
H      11.66200000      15.22000000      28.55000000 
H      12.78300000      13.34600000      27.47900000 
H      14.46700000      13.56100000      27.03900000 
H      14.00300000      13.47400000      28.73500000 
N      13.18100000      20.28800000      32.57100000 
C      14.13600000      20.99500000      33.38000000 
C      15.36600000      21.20000000      32.54200000 
O      15.96000000      20.19900000      32.10500000 
C      14.49900000      20.17600000      34.62100000 
C      13.31800000      20.02100000      35.50200000 
N      13.15900000      20.74500000      36.66100000 
C      12.16800000      19.31300000      35.35600000 
C      11.94300000      20.46600000      37.17200000 
N      11.30700000      19.60800000      36.40800000 
H      13.47600000      19.43100000      32.16600000 
H      13.69000000      21.91900000      33.67800000 
H      14.87600000      19.22100000      34.29000000 
H      15.29500000      20.67600000      35.15400000 
H      13.86700000      21.29700000      37.13200000 
H      11.90900000      18.61900000      34.59900000 
H      11.58000000      20.89200000      38.07700000 
N      15.79300000      22.42700000      32.28200000 
C      17.02300000      22.61300000      31.55500000 
C      18.20600000      22.32200000      32.44000000 
O      18.10800000      22.27100000      33.67200000 
C      16.98500000      24.09200000      31.17000000 
C      16.20000000      24.73100000      32.30500000 
C      15.16100000      23.68600000      32.68100000 
H      17.05900000      21.97000000      30.69400000 
H      17.97300000      24.50100000      31.05100000 
H      16.45300000      24.19400000      30.23700000 
H      16.84400000      24.91600000      33.15200000 
H      15.74300000      25.66200000      32.01700000 
H      14.95100000      23.70000000      33.73400000 
H      14.24200000      23.81800000      32.13300000 
N      19.37000000      22.17100000      31.80200000 
C      20.62100000      22.05200000      32.48900000 
C      21.43100000      23.31900000      32.47500000 
O      21.14400000      24.28000000      31.75100000 
H      19.38100000      22.19700000      30.81000000 
H      20.43000000      21.78100000      33.51100000 
H      21.21700000      21.27300000      32.04300000 
H      25.24955627      10.75770144      25.30247954 
H      21.94401408       6.96991587      21.39695404 
H      18.22363967      15.91308913      18.77591577 
H      16.09725832      15.75987879      21.37028526 
H      12.05835818      12.02509290      21.29191726 
H      23.79330488      12.45160834      43.37067481 
H      22.67453724      16.88189786      41.32791753 
H      29.65972116      16.32560339      27.55236864 
H      27.58808530      19.60724992      31.95293682 
H      22.39247888      21.47783343      40.67132855 
H      13.29002633      14.82079393      37.55062929 
H      13.88727323      18.03377271      28.27421884 
H      12.45946726      20.08278711      33.06827072 
H      22.23354527      23.40592174      33.06522513 
