 405 
 
N                12.1801261115       12.0461809016       27.4075540589
C                12.3316235406       12.6689372993       26.1101169607
C                13.8139042600       12.7534213789       25.7215053800
O                14.1758142181       12.7211003952       24.5473737076
C                11.6064119908       14.0044701206       26.0731976434
H                11.7811735703       12.5824469488       28.1777182342
H                11.8865201776       11.9961500166       25.3632677227
H                11.7551849483       14.4885258146       25.1126690459
H                10.5427371691       13.8269185766       26.2055011579
H                11.9650058629       14.6614223955       26.8615064086
N                14.9833608999       10.1347337126       23.1688470681
C                14.7429996351       10.5060197367       21.7861445673
C                15.9275817800       11.3051087864       21.2256999544
O                16.2547628922       11.2373817094       20.0473068204
C                13.4575256218       11.3163714078       21.6834290105
H                14.3127027755       10.3999156521       23.8747977400
H                14.6762197281        9.5998114267       21.1651583200
H                13.2892616777       11.5893516098       20.6468889032
H                12.6232573719       10.7116539634       22.0282389660
H                13.5330643862       12.2134145141       22.2928448160
N                16.5246051556       12.1535034476       22.0761102116
C                17.6636995789       12.9236573695       21.6247748621
C                18.8759300096       12.0388737960       21.3555154094
O                19.6919710956       12.3229803368       20.4851073795
C                18.1139969431       14.0138317305       22.6094998104
C                16.9320785081       14.7173599530       23.2861024871
C                19.0352965339       15.0069014248       21.9035358811
C                15.9624820646       15.4947647304       22.4062661128
H                16.3190688778       12.1012940932       23.0616453856
H                17.3740041759       13.3798961302       20.6713028573
H                18.6722109710       13.4980282532       23.3990795295
H                16.3594269241       13.9650700724       23.8253884161
H                17.3538222204       15.4126804405       24.0118806435
H                19.3485045688       15.7724188328       22.6061419461
H                19.9193637731       14.5212349842       21.4977783284
H                18.5143031021       15.4790826478       21.0768368682
H                15.1231765495       15.8000017123       23.0271273928
H                16.4334929477       16.3810633971       21.9919606301
H                15.5611281494       14.8856485363       21.6016553985
N                18.9248335286       11.0924955647       17.9521241579
C                19.3115759712       12.1068063317       16.9962347891
C                20.7448543544       11.9353517671       16.4886419262
O                21.0554873692       12.2585752539       15.3504676321
C                19.1919316274       13.4750549720       17.6449737831
H                18.8477394952       11.3740800630       18.9196923597
H                18.6516071011       12.0094351524       16.1246101115
H                19.4805389737       14.2593884701       16.9519011269
H                18.1653436366       13.6108972481       17.9672686540
H                19.8373643704       13.5090241095       18.5172765831
N                21.4360986524        8.7055936227       13.5754565403
C                21.1778993135        8.7311305954       12.1518652733
C                22.2952373029        9.4369733761       11.3600095207
O                22.2978765096        9.4365363510       10.1411252319
C                19.8421443682        9.4073921521       11.8513593811
C                18.6918744993        8.6372070003       12.4828262206
O                18.3891263118        7.5094716722       12.1266231390
N                17.9932584526        9.3211916079       13.4026547649
H                21.0464840060        9.4364739874       14.1519618535
H                21.1408787312        7.6902111430       11.8068116316
H                19.8719926961       10.4366134443       12.2041965775
H                19.7091714809        9.3982534582       10.7692501013
H                17.2550009060        8.8608847499       13.9123362179
H                18.3350763911       10.1860278200       13.7869117439
N                23.2067022579       10.0757020010       12.1002977984
C                24.3101887606       10.8018870886       11.5174814657
C                25.5468800859        9.9027497291       11.4150989726
O                25.6172367503        8.8172706259       11.9692888725
C                24.5222343725       12.1267094629       12.2621475273
C                24.8005741244       12.0710711539       13.7693748866
C                26.2459089064       11.7103626647       14.0982520202
C                24.4880583208       13.4514623958       14.3486798654
H                23.2128923186        9.9551701020       13.1001646251
H                23.9828113721       11.0261481223       10.4930797431
H                25.3408953542       12.6763791232       11.7991476479
H                23.5975050980       12.6928211835       12.1263436917
H                24.1457766770       11.3322436129       14.2465979033
H                26.3503485363       11.5746319845       15.1731487308
H                26.5454826169       10.7765915313       13.6287652152
H                26.9025002056       12.5176343362       13.7810377504
H                24.7602660451       13.4857124831       15.3974066658
H                25.0763966936       14.2118037366       13.8390866584
H                23.4308666484       13.6917515225       14.2547952224
N                30.1674244224       13.2830567857       10.4493079006
C                29.2699404564       14.3470966179       10.8547636597
C                29.6009559387       14.7912821349       12.2870992183
O                29.7867184821       15.9735433122       12.5587601171
C                27.8131100569       13.9088934160       10.7444084391
C                26.8435682965       15.0728449265       10.9076567448
C                26.8752488738       15.7410927597       12.3251430130
O                27.1436856331       15.0097992111       13.2939443016
O                26.5768744412       16.9493346187       12.3659976153
H                29.7760860654       12.4331217003       10.0636122346
H                29.4388965352       15.2165345891       10.2011683159
H                27.6573406086       13.4427468819        9.7663021736
H                27.6238544544       13.1628626396       11.5178636128
H                27.0122643577       15.8485094881       10.1577904938
H                25.8188657802       14.7125903593       10.7765741794
N                15.4533176821       20.5361897796       23.8411696114
C                14.7891460447       20.0586945071       22.6407332981
C                14.8659460393       21.1100407456       21.5202990809
O                15.1868687321       20.8187633871       20.3770392623
C                13.3323680167       19.7312724660       22.9394836616
H                14.9568572074       20.4777138557       24.7245560511
H                15.3058397043       19.1642457531       22.2667927237
H                12.8253943229       19.4506710931       22.0207762075
H                13.2692603052       18.9058867384       23.6440473919
H                12.8312776083       20.5962226292       23.3668407220
N                18.4553203851       21.8541575362       20.2734632991
C                18.8719044804       20.7574620077       19.4224434823
C                18.5293269297       21.0730149543       17.9676338287
O                19.3597386759       21.0726625627       17.0680284101
C                18.1854141996       19.4436549253       19.8650798980
O                18.5470484172       19.0983639765       21.1802160696
C                18.5943686738       18.3000888808       18.9448202509
H                17.9399151847       21.6418930898       21.1195972848
H                19.9585324759       20.6258335703       19.4975238940
H                17.0966221601       19.5910328015       19.8044616869
H                18.1645328772       19.7422614017       21.7981964688
H                18.1724422928       17.3752781333       19.3214615241
H                18.2282504786       18.4811262855       17.9411964947
H                19.6747813476       18.1953398224       18.9155608172
N                17.2321247514       21.3080209558       17.7592264523
C                16.7045547303       21.5222573683       16.4257719097
C                17.5691591650       22.5391009174       15.6834654336
O                17.9748837327       22.3322849778       14.5439243668
C                15.2511705706       21.9690566185       16.5145039982
H                16.5842689147       21.3389730999       18.5349531106
H                16.7735414956       20.5830321897       15.8609895200
H                14.8124475806       22.0101346942       15.5227831449
H                14.7044177518       21.2397668215       17.1071602972
H                15.1940680469       22.9336929649       17.0122670141
N                20.9844007398       21.4262417073       14.4429994391
C                20.7964910535       20.3944906707       13.4492426352
C                20.3528051778       20.9693686722       12.1020436684
O                20.9567312956       20.6689711875       11.0732594129
C                19.7632452213       19.3684072871       13.9029408129
C                20.1342974264       18.5529119361       15.1498568432
C                18.9760335776       17.6031213715       15.4547415591
C                21.4109892478       17.7352837752       14.9667174191
H                20.3776477627       21.4261110061       15.2547098993
H                21.7664145882       19.9153856112       13.2612151947
H                18.8391855627       19.9150970733       14.0944381639
H                19.5986064961       18.6796138377       13.0739958175
H                20.2633188148       19.2355604412       15.9939687382
H                19.1931958438       17.0188108635       16.3436218632
H                18.0468771906       18.1450279100       15.6139704055
H                18.8316677223       16.9148462100       14.6257663492
H                21.6637806715       17.2266849722       15.8938833206
H                21.2731036811       16.9819055603       14.1949239812
H                22.2595932980       18.3551563647       14.6951154649
N                19.2679976287       21.7368583282       12.0806497048
C                18.7688719922       22.2141912842       10.8079942751
C                19.6585536363       23.2746589305       10.1445282663
O                19.4522159851       23.6100369626        8.9884045167
C                17.3383609810       22.7400230392       10.8932403112
C                17.2282926806       23.9844052466       11.7763245188
C                15.9321688571       24.7602622328       11.5015879770
N                15.7518169259       25.8432113712       12.4512174568
C                15.3089976488       25.6857988701       13.6945643147
N                14.9196033937       24.4960091088       14.1439675083
N                15.1957996742       26.7531060315       14.4842618440
H                18.8065030598       22.0081168412       12.9431608968
H                18.7995208947       21.3654033448       10.1109647517
H                17.0392259494       22.9804609323        9.8722770309
H                16.7010014100       21.9380345644       11.2630296752
H                17.2796414062       23.6895876378       12.8245370058
H                18.0807641038       24.6411349463       11.5901239565
H                15.9659114825       25.1987954635       10.5040851097
H                15.0610457991       24.1036771911       11.5408050400
H                16.1606376654       26.7310912858       12.1945755361
H                15.0378531372       23.6589368838       13.5968393070
H                14.5552540132       24.4067432163       15.0794140190
H                15.4351207323       27.6682000485       14.1442592396
H                14.9196171642       26.6638319132       15.4508307852
N                23.5389423752       20.1847992449       10.5232535820
C                23.2598400573       18.7828013113       10.3116677740
C                22.5546799442       18.5022345847        8.9738659990
O                22.8318923597       17.5265524300        8.2978308448
H                23.0243492253       20.6833965088       11.2338465490
H                24.1995331124       18.2225249791       10.3301759724
H                22.6183679371       18.4234615612       11.1157862840
N                21.5634395374       19.3644113908        8.7184203547
C                20.8295875122       19.4642303424        7.4679286990
C                20.2485948086       18.1010434756        7.0494279583
O                20.3846200327       17.6454488053        5.9307668685
C                21.6757043005       20.0137821329        6.3125181160
C                22.3245262850       21.3764029379        6.5651793820
C                23.2348452096       21.7112593244        5.3859199542
C                21.2967650206       22.4895447000        6.7340403970
H                21.4496774198       20.1161042608        9.3884301676
H                19.9924855487       20.1444733436        7.6547700263
H                22.4528501684       19.2819623216        6.0837242810
H                21.0339014479       20.0834459442        5.4335795877
H                22.9364659227       21.3177772324        7.4695462215
H                23.7280733540       22.6660952119        5.5503256134
H                23.9973544378       20.9480570999        5.2524676006
H                22.6429772261       21.7782526052        4.4763091569
H                21.7951181311       23.4378609303        6.9290333049
H                20.7025086221       22.5988258737        5.8305354069
H                20.6250215524       22.3118168916        7.5675364723
N                19.5099540325       17.4840739098        7.9946987783
C                18.9989204649       16.1504797290        7.7851418088
C                17.5038819591       16.0957946281        8.0560200739
O                16.9777487266       16.6908026981        8.9859942240
C                19.6644763354       15.1492061348        8.7416941475
C                21.1335591287       14.9181026697        8.4001378040
C                21.8191822809       14.1588629940        9.5241369635
O                21.3873584151       13.1107250399        9.9797440740
N                22.9266751760       14.7577793263        9.9878899673
H                19.4638438157       17.8532642207        8.9319954096
H                19.2113097029       15.8931771004        6.7440223577
H                19.5888223483       15.5540306204        9.7531439894
H                19.1370933817       14.1956346785        8.7195188564
H                21.2131771548       14.3334690306        7.4833219192
H                21.6414568929       15.8667627342        8.2412871256
H                23.2586859270       15.6225519603        9.5911492598
H                23.4449990520       14.3475645521       10.7502673921
N                16.8215065592       15.2574468567        7.2689192744
C                15.3913708371       15.0790505013        7.4574875950
C                15.1193957587       14.6176066933        8.8931493160
O                14.1546053697       15.0015005530        9.5419620650
C                14.8512946090       14.1403619513        6.3691353498
C                13.3960636267       14.3956279687        6.0029596554
C                13.0451639447       13.4980282111        4.7682972840
O                12.6985649388       12.3266060207        5.0148112201
O                13.1678738526       14.0257045586        3.6464328413
H                17.2593792000       14.8337315738        6.4637044826
H                14.9008138651       16.0566059577        7.3589562351
H                15.4426964152       14.3010964350        5.4628974873
H                14.9664281488       13.0935404962        6.6558147703
H                12.7310978045       14.1340076436        6.8251437424
H                13.2469744368       15.4377031746        5.7179896944
N                16.0539933007       13.8243422195        9.4445867131
C                15.9009986824       13.3385850199       10.8045036777
C                15.8001181641       14.4624026395       11.8522157866
O                15.3405785393       14.2270158360       12.9643188131
C                17.0317202966       12.3703694330       11.1718744114
C                18.4198512194       13.0159159571       11.1940437445
S                19.3286897642       12.7726244510       12.7559059080
C                18.3173053272       13.7659622549       13.8901395340
H                16.7780443980       13.4023511453        8.8836887393
H                14.9554310520       12.7813452837       10.8526770864
H                16.8005291425       11.9551227338       12.1535039195
H                17.0142637432       11.5379417791       10.4673682152
H                19.0944310124       12.5725358653       10.4636474893
H                18.3770288041       14.0896821058       11.0148000464
H                18.8823111637       13.7835099880       14.8122809471
H                18.2177620081       14.7688759241       13.4913080304
H                17.3396884733       13.3208662953       14.0520158389
N                16.2520095407       15.6744825177       11.5239262179
C                16.1262085925       16.7796182763       12.4685970429
C                14.6593781113       16.9295725281       12.9102220380
O                14.3225970898       17.1224960040       14.0664402993
C                16.6796885941       18.0635830083       11.8604428693
H                16.5185391705       15.9021141513       10.5698539721
H                16.6999168152       16.5289929551       13.3691476556
H                16.6056303729       18.8672546378       12.5858927118
H                17.7269116047       17.9163405575       11.6073107517
H                16.1511231756       18.3382400533       10.9526080322
N                13.7885843008       16.8700498188       11.8921609853
C                12.3609860568       16.8824117438       12.1179082206
C                11.8514889985       15.6061225319       12.7801170431
O                11.0006343347       15.6233762331       13.6626654775
H                14.1259485334       16.6071563006       10.9765044281
H                12.1017028267       17.7389240628       12.7506614866
H                11.8566976216       16.9979242941       11.1598883337
N                12.4044977178       14.4683770623       12.3449612383
C                12.0742114553       13.2094535941       12.9926020202
C                12.1301329764       13.3831258086       14.5145114684
O                11.2775687964       12.9064083973       15.2521154342
C                13.0386205050       12.0952356289       12.5865424994
C                12.7623373771       10.7984965145       13.3501227062
C                13.4356820034       10.7803189651       14.7161523588
O                14.6031039001       11.1056290956       14.8711632389
N                12.6867635867       10.2875600020       15.7160331555
H                12.9930743239       14.4794387142       11.5218005524
H                11.0458026339       12.9203873961       12.7335532018
H                12.9360375645       11.9233004113       11.5136351874
H                14.0575204145       12.4131582667       12.8134336968
H                11.6913122199       10.6323885759       13.4490094959
H                13.1955905544        9.9645756206       12.7938835859
H                11.6865503094       10.2185928689       15.6423445682
H                13.0906880325       10.2298900993       16.6387359485
N                13.1844848000       14.0619670671       14.9748700709
C                13.3307157256       14.2268069637       16.4064607617
C                12.1731004521       15.0657790120       16.9339027308
O                11.5080092739       14.7364658693       17.9174707941
C                14.6613356302       14.8752237264       16.7736933446
C                14.8120429016       15.0366391401       18.2927304349
C                14.6330619652       13.7019044518       19.0138988205
C                16.1680895278       15.6580140197       18.6037316911
H                13.9486433892       14.3169287023       14.3605984046
H                13.2430148261       13.2429089264       16.8786234142
H                15.4697039737       14.2499291780       16.3909537557
H                14.7275130179       15.8470606228       16.2807568444
H                14.0388851746       15.7173627714       18.6518344464
H                14.8557583327       13.7931536516       20.0736278543
H                13.6063405410       13.3497060944       18.9430647974
H                15.2878303525       12.9393228096       18.5994385620
H                16.2883105145       15.7809967940       19.6744489453
H                16.9639461788       15.0211025097       18.2341550140
H                16.2621731559       16.6265879274       18.1241640627
N                11.9603792563       16.2018919703       16.2775314894
C                10.8985144949       17.1102480410       16.6631744342
C                 9.5740225373       16.3659698524       16.8975400498
O                 8.8815224209       16.6144671079       17.8916146382
C                10.7152344973       18.2032459953       15.6123283578
C                11.9107745847       19.1612041859       15.5618046015
C                11.6995206126       20.2228211070       14.4924147436
O                11.4790801935       19.9447577203       13.3224359807
N                11.8312159139       21.4853478681       14.9268585983
H                12.5413763872       16.4340935335       15.4813655103
H                11.1674068681       17.5672222169       17.6238065295
H                10.5666916316       17.7274164774       14.6429997777
H                 9.8072527313       18.7537559668       15.8606634708
H                12.0614758555       19.6232656038       16.5364878589
H                12.8153089451       18.6136504723       15.2868014862
H                11.9477447391       21.6842772228       15.9058121711
H                11.6693604910       22.2484178890       14.2870072807
N                 9.2279141834       15.4895032697       15.9630781103
C                 8.0359354066       14.6573613931       16.0251736601
C                 7.7290941495       14.2010895498       17.4578883048
O                 6.5954504554       14.2462254140       17.9132735149
C                 8.2137845094       13.4467110348       15.1133144465
H                 9.8317366611       15.3770127516       15.1529159806
H                 7.1562207935       15.2298485024       15.7007986130
H                 7.3454562755       12.7966888314       15.1720222607
H                 8.3333324792       13.7896712912       14.0887885017
H                 9.1000418651       12.8873040862       15.3983872096
N                 8.7715637907       13.6750784620       18.1183503150
C                 8.6515983625       13.2013016782       19.4765464815
C                 8.9496780493       14.2668281524       20.5402319585
O                 8.4600700416       14.1787633647       21.6633934603
C                 9.5653045175       11.9967912958       19.6854423721
H                 9.7041184049       13.7351644871       17.7278938824
H                 7.6038493234       12.9137825429       19.6328322708
H                 9.4785043212       11.6538351987       20.7116388472
H                 9.2689285444       11.1936350486       19.0167733670
H                10.5941757521       12.2799717915       19.4800905196
N                 9.7804167229       15.2584657808       20.1973023825
C                10.1923620915       16.2138455192       21.2061994493
C                 9.0032309640       16.8021842591       21.9630708387
O                 9.0388031459       16.9578662894       23.1733851808
C                10.9626228955       17.4348819059       20.6607315260
O                10.2227601948       18.1783571051       19.7282443348
C                12.3341281083       17.0298538865       20.1188832914
H                10.2176206380       15.2489679479       19.2812576331
H                10.8219109816       15.7062063023       21.9488040054
H                11.0941800801       18.1074981082       21.5198804838
H                 9.7377373749       17.5788849877       19.1260488102
H                12.8003775405       17.8868409817       19.6404491255
H                12.9746392526       16.6838368076       20.9235533556
H                12.2174897864       16.2269351864       19.4002858427
N                 8.0431859610       17.3119765300       21.1758615819
C                 6.9119573852       18.0020992107       21.7537768845
C                 6.1400029787       17.0550789384       22.6805097928
O                 5.8715742035       17.3694121810       23.8284779112
C                 5.9972665897       18.5402990404       20.6545731387
C                 6.6254038516       19.6495619544       19.8806686941
N                 6.9150186465       20.8590540297       20.4456268899
C                 6.9570095136       19.6763891413       18.5511388507
C                 7.4056602895       21.5915695512       19.4813762586
N                 7.4528161232       20.9242483854       18.3110106393
H                 7.9838937264       17.0503351190       20.2030716166
H                 7.2840989656       18.8228770527       22.3786058107
H                 5.7348564924       17.7226968770       19.9780974680
H                 5.0787693829       18.8927323073       21.1284334215
H                 6.8815736836       18.9120241478       17.8059759126
H                 7.7150643681       22.6070113962       19.6080416961
H                 7.7553653214       21.2882258913       17.4168219891
N                 5.7957015685       15.9132934973       22.0759323584
C                 5.0778673890       14.7894198433       22.6382758148
C                 4.4351607366       14.0129591972       21.4271846191
O                 4.5885057709       12.7780140086       21.4045989262
C                 3.9905233983       15.2431773349       23.6133095819
C                 3.0845261868       14.0854318313       24.0338733872
C                 3.8881552510       12.9395163747       24.6191601958
O                 4.5046672724       13.0435369264       25.6704097527
N                 3.7764573727       11.7679760496       23.9550785693
O                 3.8176837147       14.7083916549       20.6023434175
H                 6.0607864923       15.7882146264       21.1106100766
H                 5.7869256404       14.1231490344       23.1537274282
H                 4.4595516386       15.6833192416       24.4936517445
H                 3.4008383543       16.0202390926       23.1212477783
H                 2.4126796671       14.4445008632       24.8138732548
H                 2.5036427252       13.7398964431       23.1793930855
H                 3.5757045144       11.8037140037       22.9651838393
H                 4.3868558682       11.0140254665       24.2339488115
H                11.6420922401       11.3283419757       27.3352572417
H                14.5129919190       12.8370973380       26.4316284530
H                15.0341508126        9.2385921211       23.2348063941
H                19.0179478842       11.2080455244       21.8936188441
H                18.1155707138       10.7656312268       17.7324575897
H                21.4461344652       11.5534222464       17.0905854845
H                21.1125609498        7.9423319384       13.9258205743
H                26.3371100709       10.1985912303       10.8784292631
H                30.7234629125       13.5863476394        9.8099051671
H                29.6684635168       14.1123059044       13.0181491518
H                16.2107291466       20.0679626488       23.9719030330
H                14.6497000205       22.0664772681       21.7164287264
H                19.1797456262       22.3082946804       20.5544749079
H                17.8189344956       23.4005272499       16.1256836578
H                21.8183777169       21.3731820941       14.7771656837
H                20.4079034348       23.6915897894       10.6589634307
H                24.4023072879       20.2874960819       10.7557495760
