156
Properties=species:S:1:pos:R:3 pbc="F F F"
N      55.15400000      24.88000000       6.02000000 
C      56.28800000      25.19000000       6.92700000 
C      55.84700000      25.96000000       8.13400000 
O      56.33200000      25.65600000       9.22700000 
C      57.38900000      25.90700000       6.16300000 
C      58.29800000      24.94700000       5.43300000 
S      59.32300000      23.95400000       6.63900000 
C      58.61400000      22.25300000       6.40400000 
H      55.43000000      24.17600000       5.35200000 
H      54.35800000      24.51000000       6.52100000 
H      54.84500000      25.68000000       5.49300000 
H      56.64400000      24.25400000       7.30300000 
H      56.93900000      26.60300000       5.46900000 
H      57.97300000      26.48500000       6.85800000 
H      57.76000000      24.24100000       4.82400000 
H      58.98400000      25.48800000       4.80700000 
H      59.13700000      21.60500000       7.08400000 
H      57.56400000      22.26600000       6.64000000 
H      58.77200000      21.94100000       5.38800000 
N      54.95100000      26.93300000       8.04200000 
C      54.60500000      27.65400000       9.25200000 
C      54.10300000      26.69700000      10.29600000 
O      54.38800000      26.86200000      11.49000000 
C      53.56300000      28.71400000       8.95600000 
H      54.61700000      27.26800000       7.17100000 
H      55.49100000      28.10100000       9.66500000 
H      53.30300000      29.23400000       9.86700000 
H      53.96200000      29.43100000       8.25500000 
H      52.67400000      28.27000000       8.54200000 
N      53.31400000      25.69900000       9.90100000 
C      52.72300000      24.81300000      10.87300000 
C      53.77100000      23.94400000      11.52300000 
O      53.65100000      23.57100000      12.70200000 
C      51.63500000      23.99100000      10.20000000 
C      50.79800000      23.24400000      11.19200000 
O      50.88800000      22.01500000      11.31800000 
N      49.95600000      23.97900000      11.92000000 
H      53.07200000      25.60700000       8.94100000 
H      52.29000000      25.39600000      11.65800000 
H      51.00900000      24.67800000       9.65000000 
H      52.06600000      23.28600000       9.51100000 
H      49.37500000      23.53600000      12.59200000 
H      49.86200000      24.95900000      11.79500000 
N      54.81500000      23.61400000      10.77800000 
C      55.94900000      22.89100000      11.30600000 
C      56.61000000      23.73000000      12.36400000 
O      56.98600000      23.24200000      13.44400000 
C      56.90500000      22.63800000      10.14400000 
C      58.30500000      22.19900000      10.51100000 
C      58.42800000      20.75600000      10.95900000 
C      59.88500000      20.36100000      10.91500000 
N      60.04700000      18.88400000      11.05700000 
H      54.89000000      23.98300000       9.86100000 
H      55.62500000      21.97900000      11.77300000 
H      56.44800000      21.90700000       9.49500000 
H      56.97900000      23.56000000       9.59400000 
H      58.91200000      22.32600000       9.62400000 
H      58.72500000      22.84900000      11.26300000 
H      58.03800000      20.62200000      11.95900000 
H      57.86300000      20.12300000      10.29100000 
H      60.31800000      20.62100000       9.96500000 
H      60.44200000      20.82800000      11.70700000 
H      61.00600000      18.61500000      10.94700000 
H      59.73500000      18.56600000      11.95900000 
H      59.50900000      18.40300000      10.35400000 
N      56.79200000      25.00500000      12.07300000 
C      57.51400000      25.86900000      12.96400000 
C      56.76400000      26.06200000      14.24900000 
O      57.37200000      26.05100000      15.33500000 
C      57.75100000      27.20500000      12.28900000 
H      56.46900000      25.36900000      11.20400000 
H      58.44800000      25.40600000      13.23200000 
H      58.25900000      27.87800000      12.95700000 
H      58.35700000      27.06100000      11.40700000 
H      56.80800000      27.64000000      11.99600000 
N      55.45600000      26.26800000      14.18600000 
C      54.73000000      26.40800000      15.42300000 
C      54.80500000      25.12000000      16.18800000 
O      54.99000000      25.12500000      17.41800000 
C      53.29300000      26.88900000      15.24600000 
C      52.50700000      26.16100000      14.17500000 
C      52.55900000      26.78300000      16.56700000 
H      54.99800000      26.31600000      13.30000000 
H      55.23900000      27.12500000      16.04500000 
H      53.36200000      27.93100000      14.96600000 
H      51.49300000      26.53800000      14.16800000 
H      52.93100000      26.32400000      13.20500000 
H      52.46800000      25.10100000      14.36000000 
H      51.61000000      27.27900000      16.48600000 
H      52.36400000      25.74500000      16.80500000 
H      53.11500000      27.21400000      17.38200000 
N      54.67600000      23.97800000      15.52900000 
C      54.84000000      22.73300000      16.23700000 
C      56.15700000      22.70300000      16.96400000 
O      56.21900000      22.26400000      18.12800000 
C      54.77200000      21.59900000      15.21900000 
C      55.28600000      20.33300000      15.82300000 
O      54.56800000      19.64300000      16.56100000 
N      56.55200000      20.03000000      15.56400000 
H      54.46600000      23.95700000      14.55400000 
H      54.08600000      22.61500000      16.99100000 
H      53.74800000      21.45700000      14.92600000 
H      55.35400000      21.87100000      14.35900000 
H      56.93500000      19.21000000      15.97500000 
H      57.20200000      20.64000000      15.10500000 
N      57.22200000      23.08400000      16.30300000 
C      58.52700000      22.97400000      16.90100000 
C      58.62000000      23.87800000      18.10500000 
O      59.20100000      23.52000000      19.14400000 
C      59.56600000      23.32700000      15.86300000 
C      59.63000000      22.33000000      14.72400000 
O      59.10600000      21.19100000      14.89800000 
O      60.25000000      22.70400000      13.69100000 
H      57.15200000      23.34400000      15.34100000 
H      58.68000000      21.97000000      17.24700000 
H      59.36500000      24.30600000      15.46200000 
H      60.54500000      23.35500000      16.32200000 
N      58.05800000      25.07200000      17.98900000 
C      58.04500000      26.02600000      19.06500000 
C      57.30200000      25.48800000      20.25500000 
O      57.76200000      25.59200000      21.40400000 
C      57.37100000      27.29000000      18.54400000 
C      57.18800000      28.35600000      19.57500000 
C      58.28000000      28.96400000      20.17900000 
C      55.91600000      28.77300000      19.92500000 
C      58.10300000      29.97400000      21.10100000 
C      55.73100000      29.79200000      20.84400000 
C      56.82600000      30.39500000      21.43100000 
H      57.62300000      25.32300000      17.12400000 
H      59.04600000      26.23100000      19.40000000 
H      57.96800000      27.65800000      17.72200000 
H      56.41600000      27.00700000      18.14300000 
H      59.26600000      28.64400000      19.91900000 
H      55.07100000      28.30500000      19.47000000 
H      58.95500000      30.43100000      21.56100000 
H      54.74200000      30.10700000      21.10200000 
H      56.68600000      31.17000000      22.14900000 
N      53.90600000      32.35200000      14.42500000 
C      54.52900000      31.93500000      15.65700000 
C      55.05100000      33.15000000      16.37700000 
O      55.01700000      33.23600000      17.61600000 
C      55.64200000      30.90600000      15.36900000 
C      56.50700000      31.24800000      14.16400000 
C      56.52900000      30.71800000      16.59000000 
H      54.17800000      31.93100000      13.57300000 
H      53.80700000      31.48600000      16.31800000 
H      55.13300000      29.97500000      15.16700000 
H      57.31100000      30.52800000      14.09500000 
H      55.97000000      31.21100000      13.22900000 
H      56.95000000      32.22500000      14.26600000 
H      57.17100000      29.86200000      16.44300000 
H      57.15900000      31.58400000      16.73400000 
H      55.95400000      30.56600000      17.49000000 
H      56.41895955      25.03554228      20.13041439 
H      53.01960873      32.20306706      14.47114642 
H      55.43649045      33.91219141      15.85694100 
