 425 
 
N               192.9380000000       70.3500000000       96.0840000000
C               193.2290000000       71.5680000000       96.8380000000
C               194.4780000000       71.4000000000       97.7230000000
O               194.3450000000       70.9020000000       98.8480000000
C               192.0170000000       72.0200000000       97.6690000000
H               192.5100000000       69.7510000000       96.5290000000
H               193.4190000000       72.2660000000       96.1920000000
H               192.2420000000       72.8280000000       98.1560000000
H               191.2680000000       72.1960000000       97.0790000000
H               191.7760000000       71.3210000000       98.2970000000
N               196.3620000000       72.5470000000      100.1590000000
C               196.3680000000       73.4220000000      101.3130000000
C               197.7960000000       73.5950000000      101.8290000000
O               198.5290000000       72.6150000000      101.9670000000
C               195.4890000000       72.8420000000      102.4560000000
C               195.4950000000       73.7890000000      103.6590000000
C               194.0560000000       72.6360000000      101.9380000000
H               195.8740000000       71.8470000000      100.2660000000
H               196.0060000000       74.2790000000      101.0390000000
H               195.8500000000       71.9880000000      102.7410000000
H               194.9440000000       73.4180000000      104.3660000000
H               196.4040000000       73.8980000000      103.9810000000
H               195.1410000000       74.6520000000      103.3930000000
H               193.5040000000       72.2740000000      102.6490000000
H               193.6910000000       73.4870000000      101.6470000000
H               194.0680000000       72.0170000000      101.1910000000
N               200.0780000000       74.7270000000      104.9180000000
C               200.1440000000       75.0510000000      106.3360000000
C               200.7130000000       73.9180000000      107.1570000000
O               200.7140000000       72.7700000000      106.7470000000
H               200.3900000000       73.9520000000      104.7140000000
H               200.6900000000       75.8430000000      106.4600000000
H               199.2550000000       75.2660000000      106.6580000000
N               200.7870000000       72.3170000000      111.4180000000
C               200.0590000000       72.3130000000      112.6840000000
C               200.8810000000       71.5550000000      113.7090000000
O               201.5750000000       70.5960000000      113.3830000000
C               198.7030000000       71.6530000000      112.5150000000
H               201.1520000000       71.5640000000      111.2170000000
H               199.9150000000       73.2250000000      112.9800000000
H               198.2320000000       71.6580000000      113.3630000000
H               198.1850000000       72.1410000000      111.8560000000
H               198.8230000000       70.7370000000      112.2180000000
N               200.4430000000       69.2040000000      107.5370000000
C               198.9810000000       69.0170000000      107.4010000000
C               198.5850000000       68.2270000000      106.1670000000
O               197.5690000000       67.5190000000      106.1620000000
C               198.2220000000       70.3570000000      107.4340000000
C               198.0630000000       70.9200000000      108.8150000000
O               197.7030000000       70.2170000000      109.7630000000
N               198.4090000000       72.2000000000      109.0050000000
H               200.6600000000       69.9840000000      107.8270000000
H               198.7220000000       68.4910000000      108.1740000000
H               198.6930000000       71.0010000000      106.8820000000
H               197.3440000000       70.2330000000      107.0400000000
H               198.3820000000       72.5400000000      109.7940000000
H               198.6590000000       72.6820000000      108.3380000000
N               197.4640000000       64.6430000000      106.4370000000
C               196.1580000000       64.3420000000      107.0380000000
C               196.1860000000       63.3850000000      108.2260000000
O               195.4720000000       62.3850000000      108.2480000000
C               195.2160000000       63.7700000000      105.9490000000
C               194.9750000000       64.4740000000      104.6220000000
C               194.1180000000       63.6260000000      103.7380000000
C               194.3840000000       65.8540000000      104.8250000000
H               197.5950000000       65.4790000000      106.2830000000
H               195.8390000000       65.1860000000      107.3940000000
H               195.5450000000       62.8830000000      105.7360000000
H               194.3470000000       63.6580000000      106.3650000000
H               195.8300000000       64.6000000000      104.1810000000
H               193.9700000000       64.0830000000      102.8950000000
H               194.5610000000       62.7790000000      103.5730000000
H               193.2650000000       63.4650000000      104.1720000000
H               194.2430000000       66.2760000000      103.9630000000
H               193.5360000000       65.7780000000      105.2900000000
H               194.9940000000       66.3930000000      105.3520000000
N               195.0550000000       63.6640000000      111.3930000000
C               193.7160000000       63.6020000000      111.8790000000
C               192.8130000000       62.9900000000      110.8280000000
O               192.5460000000       61.8100000000      110.9660000000
C               193.2880000000       65.0000000000      112.3240000000
C               193.9850000000       65.4150000000      113.6470000000
C               193.4420000000       66.7020000000      114.2270000000
O               193.1570000000       67.6580000000      113.4640000000
O               193.2860000000       66.7460000000      115.4670000000
H               195.4010000000       64.4500000000      111.4350000000
H               193.6500000000       63.0240000000      112.6550000000
H               193.5030000000       65.6420000000      111.6290000000
H               192.3260000000       65.0220000000      112.4430000000
H               193.8800000000       64.7040000000      114.2980000000
H               194.9360000000       65.5150000000      113.4870000000
N               192.4150000000       63.7200000000      109.7790000000
C               191.5410000000       63.1750000000      108.7320000000
C               191.6510000000       61.6410000000      108.5500000000
O               190.7010000000       60.9210000000      108.8660000000
C               191.8060000000       63.8820000000      107.3850000000
H               192.6430000000       64.5400000000      109.6550000000
H               190.6350000000       63.3500000000      109.0320000000
H               191.2220000000       63.5120000000      106.7050000000
H               191.6320000000       64.8320000000      107.4780000000
H               192.7310000000       63.7470000000      107.1250000000
N               192.5420000000       65.9530000000       99.6110000000
C               191.8240000000       67.2030000000       99.8800000000
C               191.3770000000       67.7780000000       98.5640000000
O               192.2020000000       68.0420000000       97.6950000000
C               192.7060000000       68.2270000000      100.6380000000
C               191.9650000000       69.5250000000      100.9030000000
C               193.2170000000       67.6250000000      101.9220000000
H               193.3870000000       66.0540000000       99.4900000000
H               191.0620000000       67.0120000000      100.4490000000
H               193.4630000000       68.4430000000      100.0720000000
H               192.5470000000       70.1390000000      101.3770000000
H               191.6950000000       69.9220000000      100.0600000000
H               191.1780000000       69.3450000000      101.4410000000
H               193.7670000000       68.2740000000      102.3880000000
H               192.4670000000       67.3760000000      102.4840000000
H               193.7460000000       66.8370000000      101.7220000000
N               190.0670000000       67.9510000000       98.4060000000
C               189.5510000000       68.5060000000       97.1580000000
C               188.5340000000       69.5960000000       97.4280000000
O               187.8200000000       69.5390000000       98.4480000000
C               188.9100000000       67.4210000000       96.2590000000
C               189.9330000000       66.3770000000       95.8900000000
C               187.7150000000       66.7780000000       96.9660000000
H               189.4710000000       67.7580000000       98.9960000000
H               190.3120000000       68.8820000000       96.6880000000
H               188.5920000000       67.8410000000       95.4450000000
H               189.5200000000       65.7030000000       95.3270000000
H               190.6640000000       66.7960000000       95.4090000000
H               190.2740000000       65.9590000000       96.6960000000
H               187.3240000000       66.1010000000       96.3910000000
H               188.0110000000       66.3670000000       97.7930000000
H               187.0510000000       67.4570000000       97.1620000000
N               188.4620000000       70.5470000000       96.5060000000
C               187.4870000000       71.6230000000       96.6060000000
C               186.3020000000       71.2110000000       95.7410000000
O               186.5050000000       70.7680000000       94.5870000000
C               188.1010000000       72.9390000000       96.1010000000
C               187.2250000000       74.1840000000       96.2990000000
C               186.3310000000       74.4490000000       95.1110000000
C               187.1240000000       74.6400000000       93.8340000000
N               186.1650000000       74.7090000000       92.6870000000
H               188.9700000000       70.5870000000       95.8130000000
H               187.2100000000       71.7690000000       97.5240000000
H               188.9470000000       73.0800000000       96.5550000000
H               188.2980000000       72.8460000000       95.1560000000
H               186.6790000000       74.0700000000       97.0930000000
H               187.7930000000       74.9550000000       96.4530000000
H               185.7140000000       73.7090000000       95.0000000000
H               185.7960000000       75.2400000000       95.2800000000
H               187.6510000000       75.4530000000       93.8830000000
H               187.7460000000       73.9060000000       93.7100000000
H               186.6170000000       74.6900000000       91.9200000000
H               185.6100000000       74.0140000000       92.7210000000
H               185.6970000000       75.4640000000       92.7360000000
N               185.0780000000       71.3080000000       96.2790000000
C               183.9100000000       70.8840000000       95.5200000000
C               183.3470000000       71.8970000000       94.5130000000
O               183.5410000000       73.1090000000       94.6400000000
C               182.8030000000       70.4400000000       96.4850000000
C               183.1860000000       69.3850000000       97.5220000000
S               184.3690000000       68.1730000000       96.8470000000
C               183.3080000000       67.2900000000       95.6350000000
H               184.9120000000       71.6110000000       97.0660000000
H               184.2270000000       70.1500000000       94.9710000000
H               182.4770000000       71.2240000000       96.9550000000
H               182.0630000000       70.0960000000       95.9610000000
H               183.5750000000       69.8190000000       98.2970000000
H               182.3880000000       68.9240000000       97.8250000000
H               183.8270000000       66.6000000000       95.1930000000
H               182.5580000000       66.8840000000       96.0970000000
H               182.9780000000       67.9190000000       94.9750000000
N               182.9050000000       73.9750000000       99.6610000000
C               183.9940000000       73.9040000000      100.6310000000
C               185.0450000000       72.8680000000      100.2920000000
O               185.2350000000       72.5190000000       99.1280000000
H               182.1780000000       73.5820000000       99.8990000000
H               184.4180000000       74.7740000000      100.6940000000
H               183.6250000000       73.7040000000      101.5060000000
N               185.7120000000       72.3930000000      101.3420000000
C               186.7540000000       71.3620000000      101.2460000000
C               186.0570000000       70.0010000000      101.4330000000
O               184.9960000000       69.9120000000      102.0890000000
C               187.8260000000       71.5840000000      102.3310000000
C               188.6480000000       72.8730000000      102.2130000000
C               189.7380000000       72.9180000000      103.3060000000
C               189.2990000000       72.8840000000      100.8440000000
H               185.5720000000       72.6640000000      102.1460000000
H               187.2040000000       71.3980000000      100.3870000000
H               187.3890000000       71.5780000000      103.1970000000
H               188.4360000000       70.8300000000      102.3160000000
H               188.0720000000       73.6450000000      102.3270000000
H               190.2500000000       73.7380000000      103.2200000000
H               189.3200000000       72.8890000000      104.1810000000
H               190.3300000000       72.1560000000      103.2050000000
H               189.8270000000       73.6920000000      100.7430000000
H               189.8750000000       72.1090000000      100.7530000000
H               188.6130000000       72.8590000000      100.1590000000
N               186.6630000000       68.9740000000      100.8590000000
C               186.1070000000       67.6260000000      100.9220000000
C               187.1950000000       66.5600000000      100.8480000000
O               188.0050000000       66.5330000000       99.9270000000
C               185.1040000000       67.4160000000       99.8100000000
H               187.4030000000       69.0340000000      100.4240000000
H               185.6610000000       67.5370000000      101.7790000000
H               184.7440000000       66.5170000000       99.8650000000
H               184.3830000000       68.0590000000       99.8990000000
H               185.5410000000       67.5370000000       98.9530000000
N               187.1780000000       65.6830000000      101.8420000000
C               188.1600000000       64.6070000000      101.8750000000
C               187.6630000000       63.4940000000      100.9490000000
O               186.7520000000       62.7590000000      101.2890000000
C               188.3330000000       64.0640000000      103.3120000000
C               189.3630000000       62.9620000000      103.2650000000
C               188.7510000000       65.1820000000      104.2190000000
H               186.6190000000       65.6900000000      102.4950000000
H               189.0230000000       64.9380000000      101.5810000000
H               187.5020000000       63.7050000000      103.6600000000
H               189.4920000000       62.6010000000      104.1560000000
H               189.0570000000       62.2570000000      102.6730000000
H               190.2030000000       63.3180000000      102.9360000000
H               188.8600000000       64.8430000000      105.1210000000
H               189.5920000000       65.5530000000      103.9090000000
H               188.0720000000       65.8740000000      104.2140000000
N               182.6230000000       65.9000000000      104.1520000000
C               182.6530000000       67.3550000000      104.3750000000
C               183.6730000000       67.6940000000      105.4480000000
O               183.4950000000       67.4090000000      106.6480000000
C               181.2440000000       67.8680000000      104.7420000000
O               180.7070000000       67.1970000000      105.8830000000
H               181.9830000000       65.4770000000      104.5400000000
H               182.9230000000       67.8010000000      103.5570000000
H               181.2840000000       68.8210000000      104.9180000000
H               180.6490000000       67.7440000000      103.9860000000
H               180.0560000000       67.6330000000      106.1840000000
N               184.7710000000       68.2970000000      105.0190000000
C               185.8110000000       68.6880000000      105.9670000000
C               185.8670000000       70.1850000000      106.1200000000
O               185.2500000000       70.9240000000      105.3490000000
C               187.1990000000       68.1540000000      105.5220000000
H               184.9360000000       68.4880000000      104.1970000000
H               185.5860000000       68.2950000000      106.8250000000
H               187.8720000000       68.4260000000      106.1660000000
H               187.1720000000       67.1860000000      105.4720000000
H               187.4210000000       68.5170000000      104.6500000000
N               186.6860000000       70.6860000000      107.0390000000
C               186.8620000000       72.1020000000      107.2810000000
C               188.3040000000       72.3570000000      107.6060000000
O               189.0100000000       71.4230000000      108.0380000000
C               185.9740000000       72.5630000000      108.4810000000
O               184.6670000000       72.0130000000      108.3450000000
C               185.8910000000       74.0560000000      108.5430000000
H               187.1670000000       70.1910000000      107.5520000000
H               186.5990000000       72.5990000000      106.4900000000
H               186.3790000000       72.2460000000      109.3040000000
H               184.4100000000       71.7140000000      109.0870000000
H               185.3360000000       74.3190000000      109.2940000000
H               186.7810000000       74.4250000000      108.6550000000
H               185.5020000000       74.3930000000      107.7210000000
N               188.8040000000       73.5500000000      107.3280000000
C               190.1850000000       73.8880000000      107.6820000000
C               190.1720000000       74.6290000000      109.0360000000
O               189.2950000000       75.4610000000      109.2870000000
C               190.8240000000       74.7670000000      106.6050000000
C               192.3320000000       74.8700000000      106.6950000000
C               192.8300000000       76.1680000000      106.1320000000
O               192.9730000000       76.3350000000      104.9150000000
N               193.0540000000       77.1300000000      106.9910000000
H               188.3680000000       74.1800000000      106.9370000000
H               190.7110000000       73.0760000000      107.7490000000
H               190.5860000000       74.4150000000      105.7330000000
H               190.4460000000       75.6580000000      106.6640000000
H               192.6080000000       74.7910000000      107.6220000000
H               192.7370000000       74.1310000000      106.2140000000
H               192.9470000000       76.9890000000      107.8330000000
H               193.3080000000       77.9040000000      106.7140000000
N               191.1120000000       74.2670000000      109.9090000000
C               191.2280000000       74.8980000000      111.2060000000
C               192.1770000000       76.0790000000      111.1490000000
O               192.8820000000       76.3020000000      110.1560000000
C               191.7660000000       73.8780000000      112.2160000000
C               190.8820000000       72.6450000000      112.3380000000
O               191.3730000000       71.5630000000      112.6900000000
N               189.6080000000       72.7800000000      112.0060000000
H               191.6940000000       73.6510000000      109.7600000000
H               190.3510000000       75.2130000000      111.4750000000
H               192.6580000000       73.6060000000      111.9500000000
H               191.8450000000       74.3010000000      113.0850000000
H               189.0830000000       72.0990000000      112.0290000000
H               189.3050000000       73.5490000000      111.7670000000
N               192.0810000000       76.8700000000      112.1960000000
C               192.8670000000       78.1010000000      112.4350000000
C               194.3120000000       78.1090000000      111.8810000000
O               194.6540000000       78.9940000000      111.0890000000
C               192.8670000000       78.4670000000      113.9350000000
C               192.6990000000       77.2730000000      114.8290000000
C               193.9130000000       76.4020000000      114.8830000000
C               193.7070000000       75.2430000000      115.8130000000
N               193.2110000000       75.7210000000      117.1240000000
H               191.5270000000       76.7080000000      112.8340000000
H               192.4050000000       78.7780000000      111.9160000000
H               193.6990000000       78.9140000000      114.1540000000
H               192.1520000000       79.0980000000      114.1090000000
H               192.4850000000       77.5750000000      115.7260000000
H               191.9450000000       76.7480000000      114.5190000000
H               194.1190000000       76.0740000000      113.9940000000
H               194.6760000000       76.9240000000      115.1760000000
H               193.0720000000       74.6190000000      115.4270000000
H               194.5410000000       74.7620000000      115.9310000000
H               193.4900000000       75.1710000000      117.7660000000
H               193.5230000000       76.5400000000      117.2790000000
H               192.3210000000       75.7400000000      117.1160000000
N               195.0720000000       77.0830000000      112.2240000000
C               196.4450000000       76.9900000000      111.8050000000
C               196.7010000000       76.3750000000      110.4150000000
O               197.7650000000       76.6380000000      109.8300000000
C               197.3250000000       76.2790000000      112.8840000000
C               196.7990000000       74.8770000000      113.2510000000
O               195.8180000000       74.4250000000      112.6170000000
O               197.3520000000       74.2520000000      114.1890000000
H               194.8010000000       76.4240000000      112.7060000000
H               196.7100000000       77.9180000000      111.7110000000
H               198.2350000000       76.2030000000      112.5560000000
H               197.3570000000       76.8280000000      113.6830000000
N               195.7390000000       75.6490000000      109.8850000000
C               195.9050000000       75.0260000000      108.5880000000
C               195.4830000000       73.5800000000      108.5210000000
O               195.2950000000       73.0170000000      107.4230000000
H               194.9790000000       75.5030000000      110.2600000000
H               195.3950000000       75.5290000000      107.9340000000
H               196.8380000000       75.0900000000      108.3300000000
N               195.3240000000       72.9440000000      109.6860000000
C               194.9160000000       71.5420000000      109.7280000000
C               193.5430000000       71.3600000000      109.0870000000
O               192.7920000000       72.3060000000      108.9310000000
C               194.9020000000       71.0090000000      111.1760000000
O               194.1540000000       71.8290000000      112.0550000000
H               195.4470000000       73.3060000000      110.4560000000
H               195.5660000000       71.0300000000      109.2220000000
H               194.5320000000       70.1130000000      111.1830000000
H               195.8140000000       70.9420000000      111.5000000000
H               193.3660000000       71.5430000000      112.1020000000
N               193.2330000000       70.1420000000      108.6750000000
C               191.9460000000       69.8590000000      108.0290000000
C               191.2130000000       68.7900000000      108.8150000000
O               191.7280000000       67.6790000000      109.0250000000
C               192.1330000000       69.4420000000      106.5490000000
C               190.8020000000       69.1090000000      105.9140000000
C               193.1100000000       68.2890000000      106.4230000000
C               190.9410000000       68.5640000000      104.4270000000
H               193.7500000000       69.4590000000      108.7570000000
H               191.4130000000       70.6690000000      108.0260000000
H               192.5110000000       70.1960000000      106.0700000000
H               190.3480000000       68.4440000000      106.4560000000
H               190.2430000000       69.9020000000      105.9110000000
H               193.2080000000       68.0490000000      105.4880000000
H               193.9720000000       68.5540000000      106.7810000000
H               192.7760000000       67.5260000000      106.9190000000
H               190.0610000000       68.3670000000      104.0710000000
H               191.3700000000       69.2360000000      103.8750000000
H               191.4770000000       67.7560000000      104.4270000000
N               190.0430000000       69.1420000000      109.3270000000
C               189.2870000000       68.2050000000      110.1230000000
C               187.9280000000       67.9310000000      109.5200000000
O               187.3390000000       68.8220000000      108.9300000000
C               189.1830000000       68.7290000000      111.5430000000
O               189.2230000000       70.1370000000      111.5920000000
H               189.6760000000       69.9130000000      109.2240000000
H               189.7510000000       67.3540000000      110.1380000000
H               188.3560000000       68.4160000000      111.9420000000
H               189.9100000000       68.3670000000      112.0740000000
H               189.9770000000       70.3870000000      111.8650000000
N               187.5130000000       66.6670000000      109.5210000000
C               186.2030000000       66.2870000000      108.9770000000
C               185.0930000000       66.7200000000      109.9420000000
O               185.3090000000       66.7660000000      111.1510000000
C               186.0970000000       64.7410000000      108.7310000000
C               187.2770000000       64.2330000000      107.8910000000
C               184.7090000000       64.3780000000      108.1110000000
C               187.0420000000       62.8550000000      107.2580000000
H               187.9730000000       66.0100000000      109.8320000000
H               186.1010000000       66.7370000000      108.1240000000
H               186.1530000000       64.2830000000      109.5840000000
H               187.4620000000       64.8750000000      107.1880000000
H               188.0670000000       64.1910000000      108.4520000000
H               184.6600000000       63.4200000000      107.9650000000
H               184.0020000000       64.6490000000      108.7180000000
H               184.6020000000       64.8390000000      107.2640000000
H               187.8230000000       62.5970000000      106.7440000000
H               186.8840000000       62.2010000000      107.9560000000
H               186.2700000000       62.8950000000      106.6730000000
N               183.9500000000       67.1100000000      109.3970000000
C               182.8260000000       67.5610000000      110.2340000000
C               182.1020000000       66.3310000000      110.8130000000
O               182.0550000000       65.2920000000      110.1600000000
C               181.8590000000       68.4180000000      109.4110000000
C               182.2420000000       69.8800000000      109.3990000000
O               182.3980000000       70.5320000000      110.4420000000
N               182.3650000000       70.4490000000      108.2030000000
H               183.7970000000       67.1240000000      108.5510000000
H               183.1630000000       68.1060000000      110.9630000000
H               181.8340000000       68.0860000000      108.5000000000
H               180.9630000000       68.3250000000      109.7710000000
H               182.5560000000       71.2850000000      108.1420000000
H               182.2530000000       69.9810000000      107.4900000000
H               192.4343264103       70.5539202632       95.3665535273
H               195.3730650215       71.6909503493       97.3850554755
H               196.0431826638       72.9931527645       99.4453451697
H               198.1385860638       74.5066314197      102.0560747532
H               199.2203281595       74.7432444332      104.6457223249
H               201.1011754022       74.1008901633      108.0602558028
H               200.2228714532       72.5230436632      110.7476978356
H               200.8636209113       71.8339413932      114.6691508561
H               200.7707050886       68.5984252916      108.1165590112
H               199.1476707277       68.2735746556      105.3416319284
H               198.1193546052       64.3697851251      106.9900497026
H               196.7911186445       63.5675233121      109.0009301043
H               195.5767885098       63.1150359066      111.8791843017
H               192.4884756952       61.2403665617      108.1783451763
H               192.4389742555       65.3916283152      100.3068789604
H               182.8091114490       71.5795314945       93.7320456769
H               182.6932359134       74.8365279405       99.5095880473
H               188.0866093251       63.3628765508      100.0526954866
H               182.5387631646       65.7326559193      103.2717158901
H               181.6739541342       66.3816042195      111.7153391545
