 562 
 
N                49.1888001578       49.1371805611       17.4618282515
C                50.0743773271       48.4685454380       18.3972227564
C                50.4502560995       49.4583637762       19.4960233635
O                50.3712864902       49.1703399110       20.6872186112
C                51.2251284024       47.9228568577       17.5384666201
C                52.3969737205       47.2480753480       18.2447718312
C                53.3402272425       46.6541942046       17.1915403106
C                53.1310089079       48.2446861020       19.1424987286
H                49.4313225625       49.1115666985       16.4835242834
H                49.5539348430       47.6484151750       18.9057191793
H                50.7628804922       47.1892348600       16.8766582480
H                51.6128641959       48.7559239503       16.9563131117
H                52.0012501636       46.4246537042       18.8395995028
H                54.0837235461       46.0002283264       17.6431899056
H                52.7780237471       46.0557189011       16.4792887730
H                53.8703255355       47.4375365651       16.6594143124
H                54.1532366400       47.9277170505       19.3225922883
H                53.1498428667       49.2212750948       18.6695161993
H                52.6445225342       48.3239861352       20.1093243337
N                48.1844500340       49.8588130151       22.1610829011
C                48.2298375350       48.7643668546       23.1085446467
C                49.2506560968       49.0971776479       24.2034446073
O                49.0133500794       48.9190717322       25.3918006711
C                48.5629748931       47.4294089221       22.4116924458
O                49.9227130968       47.1119301005       22.3923755593
H                48.1514458873       49.6595443788       21.1685789817
H                47.2554609215       48.6805734746       23.6084879424
H                48.0670707705       46.6259627963       22.9584484974
H                48.1580249913       47.4635256518       21.3909388095
H                50.3652538902       47.7281081677       21.7789486607
N                50.3997892989       49.5997750914       23.7505149174
C                51.4119192432       50.0709201919       24.6738784510
C                50.7973194485       51.1284984329       25.5900063364
O                50.8674853403       51.0070881834       26.8120178288
C                52.6122717310       50.6447464004       23.9399719367
H                50.5406335582       49.7131384576       22.7540076168
H                51.7066386376       49.2428714829       25.3340170158
H                53.3437681873       50.9922862423       24.6644733133
H                53.0770891322       49.8912443282       23.3115772471
H                52.2838651568       51.4800764627       23.3311169359
N                48.8803931531       49.5088085699       28.2627591022
C                49.7387263081       48.7981528622       29.1949238543
C                50.4589216940       49.7897461753       30.1138328732
O                50.3206882840       49.7620191925       31.3301182496
C                50.7336573394       47.9573214347       28.4117887734
H                49.0542369970       49.3584605025       27.2720339200
H                49.1273789090       48.1564555077       29.8434021237
H                51.4259888679       47.4640723592       29.0891968171
H                50.1923471682       47.2079843326       27.8397933119
H                51.2938105462       48.5906182703       27.7291159444
N                49.9951325500       50.0616839511       34.0902491178
C                51.1787611784       49.8396021273       34.8976023838
C                51.3103392664       51.0175404763       35.8642818306
O                51.3738519925       50.8623655480       37.0796891333
C                52.4275631515       49.6974848140       34.0193244214
C                52.4666041644       48.4925649947       33.1053255200
C                53.6715299435       48.1447500342       32.4986657928
C                51.3370519623       47.7586299583       32.7700515669
C                53.7405596886       47.1044142825       31.5885303419
C                51.3870758555       46.7781217976       31.7952627516
C                52.5931472489       46.4258284052       31.2182918702
H                50.1338358820       50.0610211297       33.0841485129
H                51.0384647416       48.9370123051       35.5095045338
H                52.5109133650       50.5925226159       33.3933909549
H                53.3007749857       49.6791408906       34.6749433048
H                54.5750193044       48.6769909120       32.7568525476
H                50.4007024624       47.9459485583       33.2647593374
H                54.6911314491       46.8403271187       31.1508537398
H                50.4737285731       46.3055728523       31.4682735135
H                52.6326169087       45.6136838298       30.5089294825
N                58.8763344602       32.0943454384       31.2585818237
C                59.1174868638       33.3785929971       30.6275729245
C                60.3059797283       33.2861532666       29.6928464703
O                60.3503045025       33.9431127141       28.6609175019
C                59.3095346794       34.5559937178       31.5945963809
C                59.1935073991       35.8579833621       30.7958855635
C                60.6622600017       34.4876001680       32.2924171820
C                59.0067209674       37.0580783663       31.7052491398
H                58.9168068228       32.0829268396       32.2739232901
H                58.2583868859       33.6087544939       29.9917136662
H                58.5103652063       34.5098008976       32.3400033047
H                60.0851214956       35.9753825350       30.1765946137
H                58.3461999221       35.8018118369       30.1163724426
H                60.6669082889       35.1033623068       33.1867822039
H                60.8853034712       33.4695763528       32.5695544037
H                61.4574475780       34.8168652954       31.6286398845
H                58.8586664947       37.9664617141       31.1273498525
H                58.1315280843       36.9150765047       32.3335155734
H                59.8778833173       37.1892828785       32.3397900839
N                58.6795824916       32.3209511083       26.9302260606
C                58.0649277560       33.4408175133       26.2408416362
C                59.0909474203       34.2309704852       25.4348307344
O                58.7678804462       34.7272341603       24.3616399807
C                57.3805048204       34.4830550759       27.1377457513
C                56.4383899671       33.8990077093       28.1900139539
C                55.8453405030       34.9949565418       29.0723947044
C                55.3068954328       33.0906465514       27.5784131083
H                58.4771426988       32.1422693535       27.9104315390
H                57.3417862412       33.0554539761       25.5084698895
H                58.1576484870       35.0762570744       27.6268739921
H                56.8210928364       35.1397213101       26.4668125495
H                57.0248409276       33.2203278527       28.8086419591
H                55.5109730001       34.5731082887       30.0164824914
H                56.5661618497       35.7797336925       29.2779623519
H                54.9939229906       35.4413891082       28.5675284271
H                54.8028721520       32.5402588778       28.3680168130
H                54.5808495794       33.7357923006       27.0927426133
H                55.6941122488       32.3911541443       26.8476562458
N                59.7416579254       34.4787375264       21.9306812268
C                59.5831954930       35.7869943001       21.3264427084
C                60.7683065730       36.0901373137       20.3912986363
O                60.7759881220       37.0586846161       19.6456260681
C                59.5532565455       36.9030782800       22.3626944804
H                59.7824724700       34.4505214695       22.9419506762
H                58.6447085314       35.8102738190       20.7596504547
H                59.3254945723       37.8393909506       21.8588899523
H                58.8021948280       36.6972429334       23.1178011818
H                60.5351026306       36.9758820760       22.8218408201
N                59.7808266715       33.2035205682       17.5775552658
C                58.6255193227       33.8720288966       16.9994121386
C                59.0106252264       34.8394962745       15.8990186897
O                58.2684889136       34.9333729752       14.9107337818
C                57.8253577458       34.7244451525       18.0200439194
C                56.4360937272       34.1920248022       18.4207209133
C                56.4415774557       32.7899732519       19.0195822624
C                55.8359448446       35.1688249344       19.4341435464
H                59.7644742379       33.1778696699       18.5987529905
H                57.9394759038       33.1475076711       16.5412922802
H                58.4394128997       34.8687050430       18.9007950948
H                57.6594517980       35.7107636926       17.5822449858
H                55.8397790064       34.1924312446       17.5075824313
H                55.4343932598       32.4718480336       19.2816316701
H                56.8779795744       32.0692942382       18.3350172712
H                57.0356652016       32.7980805637       19.9241923461
H                54.8029802327       34.9233465536       19.6596747059
H                56.4056292356       35.1128605719       20.3577361615
H                55.8800061982       36.1871400380       19.0598102635
N                53.2563923856       38.3106913642       12.8716126919
C                52.3836841691       38.5539168373       14.0090293586
C                53.1013450707       39.4133400454       15.0576608887
O                53.4442189073       39.0080216484       16.1557555830
C                51.8049654301       37.2299906289       14.5274039136
C                52.8361824452       36.3012367406       15.1608579710
C                52.2055640605       35.0232331387       15.7302751985
C                53.0986404248       34.4331135366       16.8315386423
N                53.5547457879       33.0511448447       16.5111670507
H                54.0650408335       37.7098596930       12.9892591312
H                51.5637764274       39.1649362092       13.6059848583
H                51.0315194721       37.4600733415       15.2596328119
H                51.3312147951       36.7453197433       13.6714887884
H                53.5979404202       36.0623303604       14.4248788794
H                53.3252283263       36.8420492762       15.9632473051
H                51.2173125478       35.2644880913       16.1181660721
H                52.0530170215       34.3037276868       14.9265212030
H                53.9773262849       35.0678503598       16.9348667372
H                52.5872704661       34.3914089569       17.7926607388
H                54.4852440788       32.8651811883       16.9214354025
H                52.8786109459       32.3589328408       16.8679859159
H                53.6571900308       32.9325610465       15.4944551016
N                53.3122483453       40.6969727942       14.7054159718
C                54.1080827788       41.5129408993       15.5986429513
C                53.2426076525       42.2802930946       16.6008562590
O                53.6883116241       42.6091164564       17.6896082582
C                55.0201732233       42.5020394992       14.8792103032
C                56.0356164305       41.8088472556       13.9882308967
S                57.5469799989       42.8205600945       13.6768275643
C                56.8731526142       44.5160797266       13.6860367430
H                53.1504465429       41.0122904175       13.7608471773
H                54.7224409497       40.8214236691       16.1946304144
H                54.4289616107       43.1943508810       14.2806474209
H                55.5479351953       43.0673286993       15.6474781418
H                56.4446881966       40.9214302441       14.4679006763
H                55.6238878803       41.5191694648       13.0211914000
H                57.6254803632       45.1198684862       13.1869306889
H                55.9477537705       44.5610253313       13.1255285992
H                56.7447082142       44.8542540522       14.7099221899
N                52.0042935753       42.5909017451       16.2018019284
C                51.0404757365       43.1116768601       17.1517356163
C                50.8172581794       42.0484590651       18.2319710638
O                50.7593252715       42.3152207391       19.4204324223
C                49.7274275878       43.4349557767       16.4361869641
O                49.3013630162       42.2535316809       15.7940628413
H                51.6595792981       42.2957286327       15.2986572009
H                51.4397440244       44.0024502658       17.6510427044
H                48.9998688716       43.7829491610       17.1772845121
H                49.9041384891       44.2297325787       15.6989780169
H                48.3706921654       42.3221638957       15.5556266852
N                50.7701908975       40.7922020981       17.7672509143
C                50.6356186582       39.6793542798       18.6849080370
C                51.8086603709       39.6743723556       19.6515014653
O                51.6546943342       39.4699160813       20.8557005582
C                50.6279979697       38.3467060921       17.8753022012
O                49.4544296012       37.6113859273       18.0740105667
C                51.8034414243       37.4198147937       18.1629053817
H                50.5110815345       40.6406761737       16.7996186427
H                49.7248103793       39.8072220242       19.2933185712
H                50.6125688640       38.6333450183       16.8181296088
H                49.5264474165       37.1617527134       18.9267713227
H                51.5372458012       36.4542978704       17.7507333101
H                52.7129238817       37.7629102902       17.6907549408
H                51.9523871169       37.3139976022       19.2335305724
N                53.0145412311       39.8086206025       19.1099827413
C                54.1810347396       39.6772219235       19.9611917409
C                54.1595464063       40.8257023914       20.9677503286
O                54.4842864002       40.6629290784       22.1389527883
C                55.4446768439       39.6331416934       19.1185272487
H                53.1554649699       39.8641513514       18.1080394860
H                54.0753683339       38.7598204651       20.5565216699
H                56.3052475513       39.4436021432       19.7511418305
H                55.3657576882       38.8341932421       18.3858335539
H                55.5946511840       40.5776128760       18.6017928618
N                53.6900214559       41.9733583029       20.4890626565
C                53.4892348384       43.1109334671       21.3555284847
C                52.5631444484       42.7384129921       22.4979706412
O                52.8144274963       43.0709628936       23.6488854602
C                52.9593273445       44.3138784024       20.5544624753
C                54.0445352643       45.3901655032       20.5415941173
C                51.6134685431       44.8280929824       21.0665026639
C                54.1589059514       46.1448542022       21.8566082898
H                53.6131474279       42.1329295365       19.4887514912
H                54.4429310060       43.3720661134       21.8314099346
H                52.8150997746       43.9762187844       19.5234333148
H                54.9933211679       44.9141072067       20.2840460895
H                53.8170363044       46.1029094078       19.7672070921
H                51.3639834972       45.7728987561       20.5966401375
H                50.8207012944       44.1252100846       20.8328666359
H                51.6216203987       44.9904251700       22.1394063185
H                54.9551791006       46.8820432640       21.8010141432
H                53.2297581453       46.6623853861       22.0747658844
H                54.3678937607       45.4701242784       22.6817660177
N                51.4784347057       42.0257145314       22.1789184841
C                50.5150318169       41.7348526426       23.2243059395
C                51.2661144228       40.9275097676       24.2907816563
O                51.1808068693       41.2014241608       25.4821521114
C                49.2436435278       41.1144470442       22.6212282826
O                49.3397686629       39.7761505175       22.2529367462
H                51.2079671943       41.9288005489       21.2061580778
H                50.2008704864       42.6650287979       23.7176930183
H                48.4322718444       41.1686485825       23.3511018034
H                48.9790444719       41.7392607110       21.7535290806
H                50.1493946634       39.6338847295       21.7210697010
N                52.0466622453       39.9525095937       23.8166153753
C                52.9158846920       39.2150019924       24.7124443406
C                53.7689789862       40.1798426989       25.5346896102
O                53.9170614844       40.0076760968       26.7450282976
C                53.8425761672       38.2185145450       23.9912484878
C                54.5798692174       37.3665084473       25.0232111800
C                53.0680592755       37.2937858328       23.0631072350
H                52.1606416789       39.8545782107       22.8157050097
H                52.2833091683       38.6769995450       25.4301138632
H                54.5672364656       38.7998552558       23.4175117864
H                55.2378484882       36.6642616201       24.5186738221
H                55.1720965334       37.9900915241       25.6846609626
H                53.8679600171       36.8073135494       25.6274624919
H                53.7601327255       36.6435146450       22.5359484948
H                52.4060168405       36.6735873375       23.6573526576
H                52.4838368914       37.8512463392       22.3389809163
N                54.3674766366       41.1675946819       24.8768775157
C                55.2264333032       42.0956742709       25.5840307273
C                54.4598854901       42.6831817457       26.7690763324
O                54.9576832816       42.7861168311       27.8832715018
C                55.7473358489       43.2286238302       24.6949128508
C                56.7021448331       42.7612840382       23.5885537460
C                57.2515504642       43.9599712322       22.8170234947
C                57.8640309471       41.9636541993       24.1660249182
H                54.3420957961       41.1847354079       23.8637442813
H                56.0740083501       41.5518640715       26.0147388469
H                54.9004449828       43.7475612958       24.2466310208
H                56.2737215228       43.9341407794       25.3431347818
H                56.1536922987       42.1170785899       22.8956212314
H                57.9350934095       43.6137107862       22.0450441013
H                56.4620997234       44.5385633611       22.3473551669
H                57.8064496281       44.6150115374       23.4844466259
H                58.6523812887       41.8481298882       23.4268962445
H                58.2761262760       42.4790518130       25.0299301475
H                57.5429033398       40.9793042699       24.4905230557
N                53.2283815478       43.1070112186       26.4823761273
C                52.3993895687       43.7362267748       27.4871854638
C                52.1736652067       42.7615700774       28.6393164419
O                52.3722971874       43.0894618315       29.8061552015
C                51.0445570190       44.1834103612       26.9310522625
C                51.1331338947       44.9533128046       25.6096639649
C                49.7472815912       45.4519704004       25.2155978641
C                52.1260141856       46.1078972917       25.6585148956
H                52.8657349004       43.0063766051       25.5434091451
H                52.9439305484       44.5916423364       27.9117413278
H                50.4161004117       43.3053455120       26.7676035321
H                50.5642514215       44.8029912678       27.6915975067
H                51.4654190082       44.2583769112       24.8363609241
H                49.8149025184       45.9799194322       24.2713773986
H                49.0545906412       44.6186684459       25.1158845877
H                49.3509532220       46.1437211573       25.9553539605
H                52.0720910006       46.6678713961       24.7289450719
H                51.8939431063       46.7805650885       26.4756883072
H                53.1399005837       45.7407556194       25.7912896685
N                51.7280537974       41.5596487204       28.2831995709
C                51.3799026087       40.5443924024       29.2580628180
C                52.5790301125       40.1331956728       30.1092259050
O                52.5547834391       40.2077826895       31.3314642032
C                50.8645826603       39.3213684195       28.5245073180
H                51.5854461848       41.3416622980       27.2992898521
H                50.6281840851       40.9508304791       29.9492586873
H                50.6958359239       38.5046758465       29.2211566556
H                49.9395309642       39.5771242470       28.0196390338
H                51.5998220330       39.0145504693       27.7855511735
N                53.5998590149       39.6230176178       29.4193586031
C                54.8107674828       39.1869281903       30.0825234272
C                55.2098589264       40.2430595945       31.1182779923
O                55.6013702579       39.9290327420       32.2364417720
C                55.9213019332       38.8926077926       29.0553007821
C                56.5945463772       40.1671274568       28.5616786615
C                57.5516091560       40.1152387693       27.3911868373
O                58.2982046920       41.0572218096       27.1762464398
N                57.4738125283       39.0752100544       26.5414334578
H                53.6289535496       39.7165771559       28.4068175313
H                54.5922722225       38.2677217256       30.6460853411
H                56.6524048696       38.2350360608       29.5260534782
H                55.4487750298       38.3719382079       28.2203018159
H                55.8207942748       40.8653877589       28.2354780893
H                57.1346460789       40.6600281054       29.3711407333
H                56.9856371465       38.2359154165       26.7927871726
H                58.1647534953       39.0314866359       25.8059434446
N                55.1130941912       41.5085268254       30.7004516386
C                55.5046886320       42.6251502565       31.5288185766
C                54.5859476100       42.7297915722       32.7436828960
O                55.0687171865       42.7589929824       33.8736128934
C                55.4942981534       43.9125424958       30.7209290607
H                54.7913701330       41.7423526642       29.7716740171
H                56.5097961679       42.4215698839       31.9289878758
H                55.8504459276       44.7344975696       31.3340487943
H                56.1246060707       43.8090626064       29.8421136927
H                54.4851582169       44.1299530844       30.3841450108
N                53.2753798949       42.7779218792       32.5222293294
C                52.3805950954       42.8359445150       33.6597180153
C                52.7774107806       41.7404305704       34.6531231937
O                52.8255302111       41.9512870533       35.8607559077
C                50.8993482966       42.6487098097       33.2862608567
C                50.0437144301       42.8106018347       34.5415010147
C                50.4482598168       43.6790717637       32.2610884775
H                52.8916828867       42.8014730310       31.5839155590
H                52.5108812866       43.8020277114       34.1739665994
H                50.7795411984       41.6423882603       32.8748835581
H                48.9873260689       42.7608918471       34.2910542482
H                50.2625289188       42.0472252800       35.2816175503
H                50.2465461654       43.7821144865       34.9874470592
H                49.3857872921       43.5640960978       32.0604398689
H                50.6239928666       44.6695471605       32.6647141087
H                50.9883325985       43.5859541164       31.3260032218
N                52.9841331668       40.5405001775       34.1078288433
C                53.1972080501       39.3528688661       34.9132566990
C                54.4147968097       39.5740703014       35.8089612491
O                54.3991772861       39.3183608547       37.0163454719
C                53.3983569018       38.1296458556       34.0120010927
C                52.2400545308       37.8183804435       33.0902004858
C                52.3611496969       36.7481307152       32.2061538282
C                51.0789189716       38.5775843215       33.0411331785
C                51.3591370633       36.4531783044       31.2997155570
C                50.0965365823       38.3124696406       32.1025980017
C                50.2203596410       37.2391491569       31.2410969924
H                52.8830163817       40.3930138218       33.1074534603
H                52.3414234907       39.1950535577       35.5870356310
H                54.2894087621       38.2936860506       33.3964757893
H                53.5980693820       37.2630546643       34.6480724025
H                53.2435255508       36.1261905911       32.2439990959
H                50.9185051752       39.3859643199       33.7358697048
H                51.4723445849       35.6166669156       30.6281157370
H                49.2382777873       38.9629398144       32.0430840555
H                49.4234155657       37.0040870890       30.5520453878
N                55.4877502277       40.0526169435       35.1864789449
C                56.7143892425       40.2986261856       35.9113761486
C                56.5394824476       41.4011674171       36.9452485489
O                57.0628411815       41.3087172316       38.0565099459
C                57.8499380216       40.7081875998       34.9760451492
C                58.3689183909       39.5612899480       34.1035177641
C                59.5113243569       40.0827636668       33.2365415211
C                58.8343579543       38.3884702573       34.9627328708
H                55.4873173628       40.1946690578       34.1797900228
H                56.9828889108       39.3926023687       36.4684101671
H                57.4911301681       41.5253546021       34.3483830481
H                58.6729365951       41.0831585703       35.5890710479
H                57.5602304358       39.2263147938       33.4489203066
H                59.8968677091       39.3022325834       32.5934327957
H                59.1711176283       40.9061836378       32.6164965534
H                60.3332053407       40.4301956013       33.8543863588
H                59.3744388960       37.6702182430       34.3579739162
H                59.5008675441       38.7290293932       35.7518443600
H                57.9888822491       37.8726334758       35.4108609214
N                55.8683375793       42.4767356133       36.5535214075
C                55.7080274330       43.5898337573       37.4643896480
C                54.9526670865       43.1114050158       38.6982662451
O                55.3105611448       43.4169587528       39.8382683384
C                54.9988360711       44.7629329800       36.7908493450
C                55.7625277311       45.3186834165       35.5800551641
C                54.9427286879       46.4241401359       34.9219263681
C                57.1337748670       45.8620025548       35.9676864856
H                55.4373622143       42.5278563535       35.6362331562
H                56.6991361314       43.9020419008       37.8205980871
H                54.0068139924       44.4289126824       36.4792722681
H                54.8813150973       45.5540459706       37.5328366272
H                55.8907913396       44.5139295609       34.8537453314
H                55.4714236335       46.8118269401       34.0564904942
H                53.9789480576       46.0458596663       34.5916479158
H                54.7797103077       47.2407780705       35.6203688320
H                57.6122180070       46.3023147217       35.0975023672
H                57.0385858245       46.6282412726       36.7332277664
H                57.7811074676       45.0784716695       36.3496337336
N                53.8992127292       42.3273179773       38.4866918591
C                53.1733129800       41.8120472892       39.6278165634
C                54.0641796662       40.8688035703       40.4331610710
O                54.0503602530       40.8741253955       41.6637404076
C                51.8745463410       41.1289003096       39.2082484515
C                50.9086499450       42.0549772356       38.4552312944
C                49.6240887701       41.2985119016       38.1265068752
C                50.5760073155       43.3102055935       39.2522891741
H                53.5632615518       42.1039390036       37.5541141921
H                52.9489287497       42.6450598380       40.3088984393
H                52.1211544962       40.2694816433       38.5802107160
H                51.3843023520       40.7563932214       40.1105921646
H                51.3821403541       42.3532865103       37.5162437751
H                48.9338907495       41.9470986405       37.5931103580
H                49.8383823500       40.4239598545       37.5173609151
H                49.1362465629       40.9589993249       39.0379116527
H                49.7956183699       43.8715456187       38.7465612209
H                50.2206938563       43.0568231744       40.2491197052
H                51.4484816331       43.9475152030       39.3571344568
N                63.3727111541       42.0310638313       25.7926097369
C                62.0439703267       42.1279258094       25.2253246602
C                61.8912812309       43.4372126099       24.4391286258
O                61.4246083713       43.4292507923       23.3036935963
C                61.0140100804       41.9777772579       26.3362142532
S                60.8721682528       40.2450681437       26.8651320041
H                63.4446477666       41.8771225195       26.7941033462
H                61.8986920129       41.3242928989       24.4861473680
H                61.2822800605       42.5787091455       27.2034041802
H                60.0240645666       42.2704783599       25.9981013588
H                62.1246810487       40.1496077211       27.3107793064
N                62.1910827753       43.1735014647       16.1657534998
C                60.9422883075       42.7995959178       15.5381430998
C                60.6401370383       43.8533865153       14.4755130979
O                60.3792641468       43.5841060409       13.3111973424
C                59.7668878918       42.8009619311       16.5292882588
C                59.5898780810       41.5826720577       17.3795817670
N                59.7235402492       40.3032885736       16.9206374376
C                59.1582315554       41.5445674587       18.6824457222
C                59.3883682151       39.5220801823       17.9144165649
N                59.0326370066       40.2258216353       19.0081010360
H                62.1428801529       43.2448674406       17.1803048691
H                61.0213240317       41.8262821017       15.0378747921
H                59.8540623718       43.6772373974       17.1724164371
H                58.8599939578       42.9218158610       15.9267407115
H                58.9291294877       42.3177762556       19.3843692278
H                59.4286537359       38.4531083976       17.8974432636
H                58.7557252249       39.8660885304       19.9072362185
N                46.5246038369       35.5066934269       16.0186713234
C                47.0962246680       36.5986362534       16.7870660719
C                46.1316886307       36.9371645441       17.9269719701
O                46.4333215726       37.0593708259       19.0984845317
C                47.3945386671       37.9031201234       15.9976831335
O                47.3986427333       38.9760467363       16.9119850076
C                46.3745994173       38.2565992918       14.9197755336
H                46.2520794128       35.6377624306       15.0552165446
H                48.0161385584       36.2361933287       17.2576202303
H                48.3890545405       37.8021746445       15.5412629681
H                48.0505118006       38.7592244422       17.6004335698
H                46.7342523842       39.1220326624       14.3711506075
H                46.2194491059       37.4570796180       14.2022375719
H                45.4363490748       38.5466943537       15.3835903307
N                46.5116530030       34.6434550852       20.4989698359
C                47.5840219660       35.0501971743       21.3881013425
C                46.9837752252       35.8316725331       22.5517779753
O                47.3179485233       35.6224924245       23.7107276423
C                48.6725187081       35.8460335277       20.6364340498
C                50.0515798527       35.1980072922       20.8133628251
C                48.7135452068       37.3217427074       21.0441593706
C                50.5654491005       35.3562855319       22.2356821447
H                46.6745828718       34.6659291513       19.4983520125
H                48.0189921354       34.1483318826       21.8282756616
H                48.3935496233       35.7855175498       19.5811546624
H                49.9861720289       34.1480097633       20.5294158718
H                50.7641696007       35.6857632229       20.1481082763
H                49.6488423382       37.7805225739       20.7439207741
H                47.8991566253       37.8730504815       20.5871945628
H                48.6430025537       37.4543018801       22.1177461729
H                51.5474445836       34.9091081186       22.3474334622
H                50.6274245266       36.4113066616       22.4701705100
H                49.8946179318       34.9085713169       22.9606671791
N                46.0845914549       36.7657989799       22.2182127911
C                45.5689232886       37.6522761688       23.2450062467
C                44.9055173398       36.7990908924       24.3285927316
O                45.0504563247       37.0246410713       25.5278987985
C                44.6393877544       38.7414426355       22.6718407404
O                43.3230300807       38.3560186011       22.4272206325
H                45.9258056677       36.9525588739       21.2364429672
H                46.4063079823       38.1754903781       23.7278995825
H                44.5778854143       39.5512706309       23.4039678359
H                45.1159152104       39.1307881437       21.7586662035
H                43.3167854065       37.6250810764       21.7770002704
N                47.4821155263       35.2302696430       26.6167753893
C                47.9381096665       36.1926260181       27.5940051859
C                46.9594462544       36.3096452176       28.7483421466
O                47.3206704307       36.2270906512       29.9170968412
C                48.0376549689       37.5809136746       26.9746091061
C                48.8503762553       37.6188479357       25.6856082952
C                48.9588868351       39.0730998538       25.2650045019
C                50.2162837036       36.9692878729       25.8392313877
H                47.3390001008       35.5572213102       25.6684255827
H                48.9056131254       35.8777587677       28.0098068639
H                47.0330821280       37.9443500166       26.7537751853
H                48.4748339762       38.2501928979       27.7155543589
H                48.3004639801       37.0872460591       24.9067886075
H                49.4732642532       39.1578180978       24.3166788770
H                47.9626835994       39.5015302608       25.1692162792
H                49.5062901797       39.6518834535       26.0016396024
H                50.7825054107       37.1272553739       24.9290405144
H                50.7525769772       37.4094427498       26.6735775255
H                50.1199860235       35.9020139486       26.0129996362
N                47.3731090922       35.1977669054       32.5415205359
C                47.2774653447       36.0626646144       33.7068663535
C                46.2433658870       35.4927910050       34.6788474978
O                46.4764369657       35.4476562514       35.8855938817
C                47.0376420579       37.5427684501       33.3439040763
C                45.5735754443       37.9600278465       33.2764065992
C                47.7410018801       38.4193879833       34.3786373410
H                47.3280189881       35.6188192767       31.6177412240
H                48.2315552600       36.0089537324       34.2566244754
H                47.4884530342       37.6960168197       32.3595772625
H                45.5094255650       38.9936610788       32.9463274727
H                45.0044714110       37.3401459439       32.5937121038
H                45.1287164177       37.9056195357       34.2677202077
H                47.6204955031       39.4734009166       34.1415476975
H                47.3063014338       38.2365894155       35.3590115047
H                48.8016344722       38.1935545832       34.4324060128
H                48.3684209456       48.7702359042       17.5100938404
H                50.7726242672       50.3738809338       19.2553844252
H                47.4491727236       50.3556866396       22.3110291517
H                50.3356234717       51.9235136494       25.1965757446
H                48.0242130904       49.2668360269       28.3984240890
H                51.0624160325       50.4852250513       29.7238281087
H                49.3912175134       49.4159413129       34.2584842917
H                51.3473131107       51.9523979281       35.5111890952
H                58.0546542829       31.8007913787       31.0379742529
H                61.0707640292       32.6812901970       29.9147600571
H                58.4475149633       31.5530208618       26.5222704272
H                60.0219298549       34.3420459668       25.7825863150
H                59.0482050312       33.9543543944       21.6979895543
H                61.5647583984       35.4855168571       20.3813692235
H                59.8125783477       32.3526190486       17.2860789632
H                59.8460195525       35.3830191457       15.9808673819
H                52.7853536035       37.9254695945       12.2084938081
H                54.6732923264       40.2315389905       39.9610640232
H                63.8115013113       41.3424420351       25.4141084559
H                62.1726865928       44.3037204107       24.8514091777
H                62.8196474985       42.5585878718       15.9739523999
H                60.6491357808       44.8237759789       14.7168910415
H                47.1128144421       34.8266308295       15.9796438000
H                45.1604675573       37.0780489528       17.7349271575
H                46.2835846059       33.7905779349       20.6738565787
H                44.3283460494       36.0240920511       24.0712017886
H                48.0822782278       34.5629747340       26.5495278159
H                45.9874484877       36.4586492137       28.5666331742
H                48.1599027549       34.7609998944       32.5553158394
H                45.3681895168       35.1525058349       34.3349400626
