 545 
 
N               178.4610000000       66.5080000000       90.5890000000
C               179.6120000000       66.8240000000       91.4340000000
C               180.9550000000       66.6930000000       90.6950000000
O               181.1490000000       65.7640000000       89.9560000000
C               179.6290000000       65.9250000000       92.7010000000
C               180.7600000000       66.3920000000       93.5730000000
C               178.3010000000       66.0440000000       93.4740000000
H               178.1830000000       65.6960000000       90.6520000000
H               179.5100000000       67.7540000000       91.6900000000
H               179.7440000000       64.9960000000       92.4450000000
H               180.7960000000       65.8480000000       94.3750000000
H               181.5970000000       66.3110000000       93.0890000000
H               180.6180000000       67.3200000000       93.8180000000
H               178.3320000000       65.4760000000       94.2600000000
H               178.1660000000       66.9650000000       93.7460000000
H               177.5680000000       65.7660000000       92.9030000000
N               185.4500000000       67.7470000000       91.2860000000
C               186.4450000000       68.1210000000       92.3030000000
C               187.7770000000       68.5960000000       91.6960000000
O               188.0990000000       68.2770000000       90.5500000000
C               186.7210000000       66.9200000000       93.2450000000
C               187.2430000000       65.6820000000       92.4870000000
O               188.3990000000       65.3110000000       92.7270000000
O               186.4800000000       65.1120000000       91.6700000000
H               185.7710000000       67.3960000000       90.5700000000
H               186.0660000000       68.8650000000       92.7970000000
H               187.3700000000       67.1820000000       93.9160000000
H               185.9050000000       66.6870000000       93.7150000000
N               197.4640000000       64.6430000000      106.4370000000
C               196.1580000000       64.3420000000      107.0380000000
C               196.1860000000       63.3850000000      108.2260000000
O               195.4720000000       62.3850000000      108.2480000000
C               195.2160000000       63.7700000000      105.9490000000
C               194.9750000000       64.4740000000      104.6220000000
C               194.1180000000       63.6260000000      103.7380000000
C               194.3840000000       65.8540000000      104.8250000000
H               197.5950000000       65.4790000000      106.2830000000
H               195.8390000000       65.1860000000      107.3940000000
H               195.5450000000       62.8830000000      105.7360000000
H               194.3470000000       63.6580000000      106.3650000000
H               195.8300000000       64.6000000000      104.1810000000
H               193.9700000000       64.0830000000      102.8950000000
H               194.5610000000       62.7790000000      103.5730000000
H               193.2650000000       63.4650000000      104.1720000000
H               194.2430000000       66.2760000000      103.9630000000
H               193.5360000000       65.7780000000      105.2900000000
H               194.9940000000       66.3930000000      105.3520000000
N               192.4150000000       63.7200000000      109.7790000000
C               191.5410000000       63.1750000000      108.7320000000
C               191.6510000000       61.6410000000      108.5500000000
O               190.7010000000       60.9210000000      108.8660000000
C               191.8060000000       63.8820000000      107.3850000000
H               192.6430000000       64.5400000000      109.6550000000
H               190.6350000000       63.3500000000      109.0320000000
H               191.2220000000       63.5120000000      106.7050000000
H               191.6320000000       64.8320000000      107.4780000000
H               192.7310000000       63.7470000000      107.1250000000
N               189.2170000000       58.2640000000      109.4230000000
C               188.9090000000       57.3390000000      108.3590000000
C               189.2560000000       55.8910000000      108.7110000000
O               188.4640000000       54.9630000000      108.4450000000
C               189.5730000000       57.7960000000      107.0390000000
C               189.3020000000       59.1990000000      106.5540000000
C               190.1850000000       59.5430000000      105.3860000000
C               187.8620000000       59.3900000000      106.2710000000
H               189.7620000000       58.8870000000      109.1900000000
H               187.9470000000       57.3500000000      108.2330000000
H               190.5330000000       57.6980000000      107.1400000000
H               189.2970000000       57.1820000000      106.3400000000
H               189.5280000000       59.8240000000      107.2610000000
H               189.9940000000       60.4470000000      105.0910000000
H               191.1150000000       59.4800000000      105.6540000000
H               190.0160000000       58.9240000000      104.6590000000
H               187.7100000000       60.2970000000      105.9610000000
H               187.5810000000       58.7630000000      105.5860000000
H               187.3500000000       59.2350000000      107.0800000000
N               187.8240000000       52.8830000000      106.6300000000
C               188.0200000000       53.3870000000      105.2800000000
C               189.3750000000       52.8780000000      104.7990000000
O               190.4030000000       53.1090000000      105.4590000000
C               188.0290000000       54.9140000000      105.2380000000
C               188.4960000000       55.4220000000      103.8880000000
C               186.6740000000       55.5110000000      105.6040000000
H               187.9840000000       53.4640000000      107.2440000000
H               187.2910000000       53.0810000000      104.7180000000
H               188.6620000000       55.2090000000      105.9110000000
H               188.4920000000       56.3920000000      103.8880000000
H               189.3950000000       55.1020000000      103.7150000000
H               187.8990000000       55.0970000000      103.1960000000
H               186.7250000000       56.4790000000      105.5650000000
H               186.0020000000       55.1970000000      104.9780000000
H               186.4310000000       55.2370000000      106.5020000000
N               190.3410000000       53.1930000000      101.4160000000
C               190.7400000000       54.1180000000      100.3690000000
C               191.5640000000       55.2810000000      100.8600000000
O               191.3200000000       55.8900000000      101.9050000000
H               189.4920000000       53.0830000000      101.4930000000
H               191.2470000000       53.6340000000       99.6990000000
H               189.9450000000       54.4590000000       99.9310000000
N               192.6440000000       55.5760000000      100.1130000000
C               193.5180000000       56.6890000000      100.4420000000
C               192.6780000000       57.9920000000      100.3380000000
O               191.7890000000       58.0550000000       99.5240000000
C               194.6670000000       56.7480000000       99.4160000000
O               195.2960000000       55.4500000000       99.3170000000
C               195.6880000000       57.7620000000       99.8420000000
H               192.8780000000       55.1360000000       99.4120000000
H               193.8870000000       56.5860000000      101.3330000000
H               194.3050000000       57.0030000000       98.5530000000
H               195.9210000000       55.4830000000       98.7570000000
H               196.4060000000       57.7920000000       99.1910000000
H               195.2710000000       58.6360000000       99.9030000000
H               196.0480000000       57.5150000000      100.7080000000
N               193.0310000000       59.0180000000      101.1240000000
C               192.3140000000       60.2670000000      101.1120000000
C               193.0440000000       61.3970000000      100.4230000000
O               194.2780000000       61.4040000000      100.3260000000
C               191.9660000000       60.6540000000      102.5310000000
H               193.6930000000       58.9950000000      101.6720000000
H               191.5120000000       60.1210000000      100.5870000000
H               191.4830000000       61.4950000000      102.5280000000
H               191.4110000000       59.9640000000      102.9280000000
H               192.7800000000       60.7510000000      103.0490000000
N               192.2620000000       62.3410000000       99.9440000000
C               192.8140000000       63.5460000000       99.3130000000
C               191.9250000000       64.7670000000       99.5610000000
O               190.7250000000       64.6360000000       99.7380000000
C               193.0680000000       63.3470000000       97.8240000000
O               192.1070000000       62.4950000000       97.2310000000
H               191.4030000000       62.3130000000       99.9690000000
H               193.6730000000       63.7130000000       99.7320000000
H               193.0560000000       64.2080000000       97.3770000000
H               193.9540000000       62.9730000000       97.6950000000
H               192.2760000000       62.4090000000       96.4130000000
N               192.5420000000       65.9530000000       99.6110000000
C               191.8240000000       67.2030000000       99.8800000000
C               191.3770000000       67.7780000000       98.5640000000
O               192.2020000000       68.0420000000       97.6950000000
C               192.7060000000       68.2270000000      100.6380000000
C               191.9650000000       69.5250000000      100.9030000000
C               193.2170000000       67.6250000000      101.9220000000
H               193.3870000000       66.0540000000       99.4900000000
H               191.0620000000       67.0120000000      100.4490000000
H               193.4630000000       68.4430000000      100.0720000000
H               192.5470000000       70.1390000000      101.3770000000
H               191.6950000000       69.9220000000      100.0600000000
H               191.1780000000       69.3450000000      101.4410000000
H               193.7670000000       68.2740000000      102.3880000000
H               192.4670000000       67.3760000000      102.4840000000
H               193.7460000000       66.8370000000      101.7220000000
N               190.0670000000       67.9510000000       98.4060000000
C               189.5510000000       68.5060000000       97.1580000000
C               188.5340000000       69.5960000000       97.4280000000
O               187.8200000000       69.5390000000       98.4480000000
C               188.9100000000       67.4210000000       96.2590000000
C               189.9330000000       66.3770000000       95.8900000000
C               187.7150000000       66.7780000000       96.9660000000
H               189.4710000000       67.7580000000       98.9960000000
H               190.3120000000       68.8820000000       96.6880000000
H               188.5920000000       67.8410000000       95.4450000000
H               189.5200000000       65.7030000000       95.3270000000
H               190.6640000000       66.7960000000       95.4090000000
H               190.2740000000       65.9590000000       96.6960000000
H               187.3240000000       66.1010000000       96.3910000000
H               188.0110000000       66.3670000000       97.7930000000
H               187.0510000000       67.4570000000       97.1620000000
N               185.0780000000       71.3080000000       96.2790000000
C               183.9100000000       70.8840000000       95.5200000000
C               183.3470000000       71.8970000000       94.5130000000
O               183.5410000000       73.1090000000       94.6400000000
C               182.8030000000       70.4400000000       96.4850000000
C               183.1860000000       69.3850000000       97.5220000000
S               184.3690000000       68.1730000000       96.8470000000
C               183.3080000000       67.2900000000       95.6350000000
H               184.9120000000       71.6110000000       97.0660000000
H               184.2270000000       70.1500000000       94.9710000000
H               182.4770000000       71.2240000000       96.9550000000
H               182.0630000000       70.0960000000       95.9610000000
H               183.5750000000       69.8190000000       98.2970000000
H               182.3880000000       68.9240000000       97.8250000000
H               183.8270000000       66.6000000000       95.1930000000
H               182.5580000000       66.8840000000       96.0970000000
H               182.9780000000       67.9190000000       94.9750000000
N               185.7120000000       72.3930000000      101.3420000000
C               186.7540000000       71.3620000000      101.2460000000
C               186.0570000000       70.0010000000      101.4330000000
O               184.9960000000       69.9120000000      102.0890000000
C               187.8260000000       71.5840000000      102.3310000000
C               188.6480000000       72.8730000000      102.2130000000
C               189.7380000000       72.9180000000      103.3060000000
C               189.2990000000       72.8840000000      100.8440000000
H               185.5720000000       72.6640000000      102.1460000000
H               187.2040000000       71.3980000000      100.3870000000
H               187.3890000000       71.5780000000      103.1970000000
H               188.4360000000       70.8300000000      102.3160000000
H               188.0720000000       73.6450000000      102.3270000000
H               190.2500000000       73.7380000000      103.2200000000
H               189.3200000000       72.8890000000      104.1810000000
H               190.3300000000       72.1560000000      103.2050000000
H               189.8270000000       73.6920000000      100.7430000000
H               189.8750000000       72.1090000000      100.7530000000
H               188.6130000000       72.8590000000      100.1590000000
N               186.6630000000       68.9740000000      100.8590000000
C               186.1070000000       67.6260000000      100.9220000000
C               187.1950000000       66.5600000000      100.8480000000
O               188.0050000000       66.5330000000       99.9270000000
C               185.1040000000       67.4160000000       99.8100000000
H               187.4030000000       69.0340000000      100.4240000000
H               185.6610000000       67.5370000000      101.7790000000
H               184.7440000000       66.5170000000       99.8650000000
H               184.3830000000       68.0590000000       99.8990000000
H               185.5410000000       67.5370000000       98.9530000000
N               187.1780000000       65.6830000000      101.8420000000
C               188.1600000000       64.6070000000      101.8750000000
C               187.6630000000       63.4940000000      100.9490000000
O               186.7520000000       62.7590000000      101.2890000000
C               188.3330000000       64.0640000000      103.3120000000
C               189.3630000000       62.9620000000      103.2650000000
C               188.7510000000       65.1820000000      104.2190000000
H               186.6190000000       65.6900000000      102.4950000000
H               189.0230000000       64.9380000000      101.5810000000
H               187.5020000000       63.7050000000      103.6600000000
H               189.4920000000       62.6010000000      104.1560000000
H               189.0570000000       62.2570000000      102.6730000000
H               190.2030000000       63.3180000000      102.9360000000
H               188.8600000000       64.8430000000      105.1210000000
H               189.5920000000       65.5530000000      103.9090000000
H               188.0720000000       65.8740000000      104.2140000000
N               188.2340000000       63.4470000000       99.7560000000
C               187.8730000000       62.4630000000       98.7450000000
C               188.5570000000       61.1470000000       99.0420000000
O               189.7380000000       61.0980000000       99.4470000000
C               188.2900000000       62.9700000000       97.3580000000
C               187.9090000000       62.0430000000       96.2040000000
C               188.3590000000       62.6190000000       94.9060000000
C               188.1520000000       61.6620000000       93.7630000000
N               188.6280000000       62.2210000000       92.4800000000
H               188.8500000000       63.9920000000       99.5060000000
H               186.9120000000       62.3290000000       98.7580000000
H               187.8840000000       63.8380000000       97.2080000000
H               189.2510000000       63.1010000000       97.3490000000
H               188.3130000000       61.1710000000       96.3350000000
H               186.9480000000       61.9120000000       96.1910000000
H               187.8730000000       63.4400000000       94.7310000000
H               189.2990000000       62.8530000000       94.9650000000
H               188.6210000000       60.8330000000       93.9470000000
H               187.2090000000       61.4450000000       93.6910000000
H               188.1230000000       61.9110000000       91.8160000000
H               188.5740000000       63.1090000000       92.5040000000
H               189.4740000000       61.9800000000       92.3460000000
N               187.8360000000       60.0570000000       98.8430000000
C               188.3590000000       58.7250000000       99.0990000000
C               187.8130000000       57.8850000000       97.9740000000
O               186.6640000000       57.4020000000       98.0040000000
C               187.8770000000       58.1630000000      100.4280000000
C               188.2230000000       56.6970000000      100.5450000000
C               188.4670000000       58.9440000000      101.5750000000
H               187.0260000000       60.0670000000       98.5540000000
H               189.3280000000       58.7350000000       99.1450000000
H               186.9110000000       58.2480000000      100.4650000000
H               187.9080000000       56.3570000000      101.3970000000
H               187.7980000000       56.2060000000       99.8250000000
H               189.1850000000       56.5860000000      100.4880000000
H               188.1510000000       58.5750000000      102.4150000000
H               189.4350000000       58.8880000000      101.5410000000
H               188.1950000000       59.8730000000      101.5080000000
N               188.6370000000       57.6350000000       96.9650000000
C               188.2130000000       56.8560000000       95.8260000000
C               187.1490000000       57.6470000000       95.0650000000
O               187.4560000000       58.3460000000       94.0910000000
H               189.4500000000       57.9120000000       96.9260000000
H               188.9680000000       56.6650000000       95.2480000000
H               187.8550000000       56.0020000000       96.1160000000
N               185.9210000000       57.5420000000       95.5540000000
C               184.7900000000       58.2520000000       94.9680000000
C               183.9750000000       58.9800000000       96.0190000000
O               183.2640000000       59.9120000000       95.7020000000
C               183.8790000000       57.2990000000       94.2120000000
C               184.3120000000       57.0690000000       92.7730000000
O               184.6690000000       55.9120000000       92.4380000000
O               184.3050000000       58.0540000000       92.0090000000
H               185.7180000000       57.0570000000       96.2350000000
H               185.1620000000       58.9040000000       94.3530000000
H               183.8550000000       56.4480000000       94.6760000000
H               182.9750000000       57.6510000000       94.2190000000
N               184.1310000000       58.5930000000       97.2760000000
C               183.3620000000       59.2170000000       98.3490000000
C               183.9360000000       60.5560000000       98.7840000000
O               185.1560000000       60.7510000000       98.7830000000
C               183.2660000000       58.2770000000       99.5700000000
C               182.7910000000       56.8650000000       99.2060000000
O               182.0000000000       56.6940000000       98.2490000000
O               183.2420000000       55.9380000000       99.9150000000
H               184.6720000000       57.9750000000       97.5310000000
H               182.4760000000       59.3810000000       97.9890000000
H               184.1350000000       58.2200000000       99.9970000000
H               182.6560000000       58.6600000000      100.2190000000
N               183.0340000000       61.4850000000       99.0820000000
C               183.4080000000       62.8130000000       99.5360000000
C               182.8940000000       63.0860000000      100.9390000000
O               181.6910000000       62.9550000000      101.2030000000
C               182.8380000000       63.8600000000       98.5940000000
C               183.2840000000       63.7170000000       97.1610000000
C               182.4350000000       63.1630000000       96.1920000000
C               184.5640000000       64.0910000000       96.7760000000
C               182.8400000000       63.0040000000       94.8620000000
C               184.9880000000       63.9420000000       95.4610000000
C               184.1200000000       63.4070000000       94.4930000000
O               184.5580000000       63.2680000000       93.1870000000
H               182.1850000000       61.3600000000       99.0250000000
H               184.3770000000       62.8580000000       99.5450000000
H               181.8700000000       63.8150000000       98.6260000000
H               183.0920000000       64.7400000000       98.9140000000
H               181.5800000000       62.8940000000       96.4400000000
H               185.1470000000       64.4470000000       97.4080000000
H               182.2620000000       62.6340000000       94.2340000000
H               185.8490000000       64.1970000000       95.2200000000
H               185.0920000000       63.8890000000       93.0030000000
N               183.8020000000       63.4880000000      101.8180000000
C               183.4450000000       63.8420000000      103.1870000000
C               183.5610000000       65.3440000000      103.3850000000
O               184.4730000000       65.9710000000      102.8590000000
C               184.3710000000       63.1640000000      104.1910000000
C               184.4190000000       61.6700000000      104.0550000000
C               185.2890000000       61.0570000000      103.1450000000
C               183.5640000000       60.8540000000      104.8140000000
C               185.3030000000       59.7000000000      102.9960000000
C               183.5910000000       59.4930000000      104.6760000000
C               184.4470000000       58.9130000000      103.7660000000
O               184.4430000000       57.5540000000      103.5960000000
H               184.6400000000       63.5640000000      101.6400000000
H               182.5330000000       63.5460000000      103.3340000000
H               185.2670000000       63.5190000000      104.0840000000
H               184.0820000000       63.3900000000      105.0890000000
H               185.8640000000       61.5810000000      102.6360000000
H               182.9730000000       61.2430000000      105.4170000000
H               185.8800000000       59.3030000000      102.3840000000
H               183.0330000000       58.9610000000      105.1950000000
H               183.8850000000       57.2070000000      104.1200000000
N               182.6230000000       65.9000000000      104.1520000000
C               182.6530000000       67.3550000000      104.3750000000
C               183.6730000000       67.6940000000      105.4480000000
O               183.4950000000       67.4090000000      106.6480000000
C               181.2440000000       67.8680000000      104.7420000000
O               180.7070000000       67.1970000000      105.8830000000
H               181.9830000000       65.4770000000      104.5400000000
H               182.9230000000       67.8010000000      103.5570000000
H               181.2840000000       68.8210000000      104.9180000000
H               180.6490000000       67.7440000000      103.9860000000
H               180.0560000000       67.6330000000      106.1840000000
N               184.7710000000       68.2970000000      105.0190000000
C               185.8110000000       68.6880000000      105.9670000000
C               185.8670000000       70.1850000000      106.1200000000
O               185.2500000000       70.9240000000      105.3490000000
C               187.1990000000       68.1540000000      105.5220000000
H               184.9360000000       68.4880000000      104.1970000000
H               185.5860000000       68.2950000000      106.8250000000
H               187.8720000000       68.4260000000      106.1660000000
H               187.1720000000       67.1860000000      105.4720000000
H               187.4210000000       68.5170000000      104.6500000000
N               193.2330000000       70.1420000000      108.6750000000
C               191.9460000000       69.8590000000      108.0290000000
C               191.2130000000       68.7900000000      108.8150000000
O               191.7280000000       67.6790000000      109.0250000000
C               192.1330000000       69.4420000000      106.5490000000
C               190.8020000000       69.1090000000      105.9140000000
C               193.1100000000       68.2890000000      106.4230000000
C               190.9410000000       68.5640000000      104.4270000000
H               193.7500000000       69.4590000000      108.7570000000
H               191.4130000000       70.6690000000      108.0260000000
H               192.5110000000       70.1960000000      106.0700000000
H               190.3480000000       68.4440000000      106.4560000000
H               190.2430000000       69.9020000000      105.9110000000
H               193.2080000000       68.0490000000      105.4880000000
H               193.9720000000       68.5540000000      106.7810000000
H               192.7760000000       67.5260000000      106.9190000000
H               190.0610000000       68.3670000000      104.0710000000
H               191.3700000000       69.2360000000      103.8750000000
H               191.4770000000       67.7560000000      104.4270000000
N               187.5130000000       66.6670000000      109.5210000000
C               186.2030000000       66.2870000000      108.9770000000
C               185.0930000000       66.7200000000      109.9420000000
O               185.3090000000       66.7660000000      111.1510000000
C               186.0970000000       64.7410000000      108.7310000000
C               187.2770000000       64.2330000000      107.8910000000
C               184.7090000000       64.3780000000      108.1110000000
C               187.0420000000       62.8550000000      107.2580000000
H               187.9730000000       66.0100000000      109.8320000000
H               186.1010000000       66.7370000000      108.1240000000
H               186.1530000000       64.2830000000      109.5840000000
H               187.4620000000       64.8750000000      107.1880000000
H               188.0670000000       64.1910000000      108.4520000000
H               184.6600000000       63.4200000000      107.9650000000
H               184.0020000000       64.6490000000      108.7180000000
H               184.6020000000       64.8390000000      107.2640000000
H               187.8230000000       62.5970000000      106.7440000000
H               186.8840000000       62.2010000000      107.9560000000
H               186.2700000000       62.8950000000      106.6730000000
N               181.1200000000       60.3260000000      110.9630000000
C               181.6240000000       61.3700000000      110.0850000000
C               180.4720000000       61.8300000000      109.2010000000
O               179.4140000000       61.1950000000      109.1650000000
C               182.7990000000       60.8120000000      109.2870000000
C               183.9380000000       60.2070000000      110.1530000000
C               185.0350000000       59.5800000000      109.3130000000
C               184.4930000000       61.2780000000      111.0480000000
H               181.2490000000       59.5310000000      110.6620000000
H               181.9520000000       62.1390000000      110.5770000000
H               182.4690000000       60.1280000000      108.6830000000
H               183.1680000000       61.5210000000      108.7380000000
H               183.5640000000       59.4900000000      110.6890000000
H               185.7210000000       59.2170000000      109.8950000000
H               184.6610000000       58.8670000000      108.7710000000
H               185.4250000000       60.2540000000      108.7350000000
H               185.2050000000       60.9080000000      111.5930000000
H               184.8430000000       62.0030000000      110.5070000000
H               183.7890000000       61.6160000000      111.6230000000
N               180.7080000000       62.9150000000      108.4690000000
C               179.6410000000       63.4360000000      107.5840000000
C               180.0720000000       63.4530000000      106.1200000000
O               180.9720000000       64.1890000000      105.7560000000
C               179.2380000000       64.8620000000      107.9900000000
C               178.7540000000       64.9610000000      109.4030000000
O               178.3610000000       63.9760000000      110.0010000000
N               178.8230000000       66.1570000000      109.9740000000
H               181.4460000000       63.3570000000      108.4610000000
H               178.8850000000       62.8360000000      107.6830000000
H               179.9990000000       65.4520000000      107.8730000000
H               178.5410000000       65.1770000000      107.3930000000
H               178.5850000000       66.2560000000      110.7950000000
H               179.1050000000       66.8330000000      109.5230000000
N               179.4290000000       62.6150000000      105.3060000000
C               179.6830000000       62.5210000000      103.8610000000
C               178.8200000000       63.5420000000      103.1170000000
O               177.9310000000       64.1720000000      103.7040000000
C               179.3990000000       61.1090000000      103.3560000000
C               179.7030000000       60.9070000000      101.8810000000
C               179.1070000000       59.6260000000      101.3310000000
C               179.6810000000       58.4270000000      102.0350000000
N               181.1340000000       58.4210000000      102.0080000000
H               178.8200000000       62.0730000000      105.5810000000
H               180.6180000000       62.7170000000      103.6930000000
H               179.9240000000       60.4790000000      103.8740000000
H               178.4650000000       60.9000000000      103.5160000000
H               179.3590000000       61.6610000000      101.3770000000
H               180.6640000000       60.8940000000      101.7520000000
H               178.1430000000       59.6400000000      101.4390000000
H               179.2850000000       59.5640000000      100.3790000000
H               179.3760000000       58.4170000000      102.9560000000
H               179.3480000000       57.6180000000      101.6170000000
H               181.4220000000       57.6480000000      101.6730000000
H               181.4240000000       59.0910000000      101.5000000000
H               181.4470000000       58.5200000000      102.8350000000
N               179.1060000000       63.7200000000      101.8350000000
C               178.3400000000       64.6170000000      100.9810000000
C               177.4860000000       63.7580000000      100.0500000000
O               177.9520000000       62.7290000000       99.5390000000
C               179.2520000000       65.5500000000      100.1740000000
C               180.0050000000       66.6070000000      101.0010000000
C               180.9480000000       67.3890000000      100.0790000000
C               179.0500000000       67.4890000000      101.7200000000
H               179.7540000000       63.3220000000      101.4330000000
H               177.7790000000       65.1870000000      101.5300000000
H               179.9020000000       65.0100000000       99.6970000000
H               178.7160000000       66.0050000000       99.5060000000
H               180.5430000000       66.1730000000      101.6820000000
H               181.4250000000       68.0570000000      100.5950000000
H               181.5840000000       66.7790000000       99.6740000000
H               180.4320000000       67.8260000000       99.3840000000
H               179.5420000000       68.1480000000      102.2350000000
H               178.4800000000       67.9410000000      101.0780000000
H               178.5030000000       66.9550000000      102.3170000000
N               174.6700000000       66.7960000000      103.6210000000
C               175.5260000000       66.0410000000      104.5040000000
C               174.7880000000       64.8360000000      105.0280000000
O               173.7790000000       64.9690000000      105.7220000000
C               176.0280000000       66.9400000000      105.6460000000
C               176.8200000000       68.1220000000      105.2010000000
C               177.4230000000       68.8630000000      106.3740000000
O               176.6930000000       69.2670000000      107.3230000000
O               178.6530000000       69.0140000000      106.3610000000
H               174.3220000000       67.5090000000      103.9520000000
H               176.3010000000       65.7250000000      104.0140000000
H               175.2640000000       67.2510000000      106.1570000000
H               176.5730000000       66.4070000000      106.2460000000
H               177.5260000000       67.8320000000      104.6030000000
H               176.2500000000       68.7230000000      104.6960000000
N               175.2650000000       63.6590000000      104.6190000000
C               174.6860000000       62.3900000000      105.0290000000
C               175.6560000000       61.7660000000      106.0050000000
O               176.8570000000       61.9660000000      105.9000000000
C               174.4300000000       61.4370000000      103.8220000000
C               173.4660000000       62.1030000000      102.8170000000
C               175.7300000000       61.0280000000      103.1610000000
H               175.9400000000       63.5800000000      104.0910000000
H               173.8180000000       62.5400000000      105.4350000000
H               174.0120000000       60.6260000000      104.1510000000
H               173.3120000000       61.5040000000      102.0700000000
H               172.6220000000       62.2950000000      103.2560000000
H               173.8570000000       62.9300000000      102.4930000000
H               175.5420000000       60.4370000000      102.4150000000
H               176.1920000000       61.8180000000      102.8390000000
H               176.2900000000       60.5670000000      103.8050000000
N               175.0980000000       61.0070000000      106.9410000000
C               175.8730000000       60.3570000000      107.9630000000
C               175.4010000000       58.9160000000      108.0400000000
O               174.2020000000       58.6350000000      107.8380000000
C               175.6170000000       61.0150000000      109.3140000000
C               174.1470000000       60.9170000000      109.6840000000
C               176.4930000000       60.4000000000      110.3720000000
H               174.2520000000       60.8590000000      106.9930000000
H               176.8180000000       60.4180000000      107.7530000000
H               175.8430000000       61.9560000000      109.2510000000
H               174.0010000000       61.3400000000      110.5450000000
H               173.6130000000       61.3650000000      109.0100000000
H               173.8870000000       59.9840000000      109.7340000000
H               176.3190000000       60.8280000000      111.2250000000
H               176.3000000000       59.4520000000      110.4410000000
H               177.4250000000       60.5230000000      110.1330000000
H               177.7693458620       67.0386126583       90.8127515592
H               181.6684210759       67.3808709612       90.8286559363
H               184.8788104948       67.1437192986       91.6321140628
H               188.3941716530       69.1712529066       92.2328270151
H               198.1193546052       64.3697851251      106.9900497026
H               196.7911186445       63.5675233121      109.0009301043
H               191.9934175856       63.6800517417      110.5731488554
H               192.4884756952       61.2403665617      108.1783451763
H               188.4598966816       58.6608193080      109.7046540467
H               190.1247901283       55.6797400274      109.1588537004
H               186.9701220106       52.6168574854      106.7303022487
H               189.4397695020       52.3555545896      103.9487907876
H               190.6944956681       52.3819297003      101.2510582478
H               188.4368697810       70.3587203872       96.7886070602
H               185.6365441765       70.6103742084       96.3855206917
H               182.8091114490       71.5795314945       93.7320456769
H               185.9527131526       73.1097873881      100.8538678269
H               186.4097518518       70.5925941937      106.8543619003
H               193.6833853457       70.7536540428      108.1922657332
H               190.2981437587       68.9729554822      109.1749518709
H               188.0074397639       67.0499704025      108.8738037464
H               184.1906018588       66.9658530119      109.5881159919
H               181.5312956046       60.3806293438      111.7616560965
H               176.5433598878       64.0241997482       99.8485867111
H               175.1396445918       67.0591942857      102.8997769240
H               176.0518637297       58.1873912079      108.2533204948
