 429 
 
N               220.9040000000       64.9890000000      122.3070000000
C               221.7950000000       65.8730000000      121.5840000000
C               223.2800000000       65.6200000000      121.8930000000
O               224.0230000000       65.2490000000      120.9970000000
C               221.4340000000       67.3300000000      121.8240000000
C               222.1750000000       68.2720000000      120.9510000000
C               221.8760000000       68.3570000000      119.5950000000
C               223.2220000000       69.0380000000      121.4570000000
C               222.6160000000       69.1780000000      118.7840000000
C               223.9380000000       69.8570000000      120.6210000000
C               223.6490000000       69.9270000000      119.2980000000
H               220.2570000000       65.3850000000      122.7120000000
H               221.6710000000       65.6720000000      120.6430000000
H               220.4820000000       67.4480000000      121.6810000000
H               221.6110000000       67.5520000000      122.7520000000
H               221.1760000000       67.8580000000      119.2400000000
H               223.4360000000       68.9940000000      122.3610000000
H               222.4180000000       69.2290000000      117.8770000000
H               224.6310000000       70.3710000000      120.9670000000
H               224.1470000000       70.4790000000      118.7400000000
N               223.6950000000       65.8260000000      123.1450000000
C               225.1100000000       65.6580000000      123.4940000000
C               225.7130000000       64.3320000000      123.0600000000
O               226.9200000000       64.2330000000      122.8090000000
C               225.3560000000       65.9130000000      124.9960000000
C               224.8050000000       64.8770000000      125.9730000000
C               225.4000000000       65.1250000000      127.3890000000
C               226.8880000000       65.0370000000      127.3700000000
N               227.5240000000       65.4570000000      128.6660000000
H               223.1850000000       66.0590000000      123.7970000000
H               225.5770000000       66.3350000000      122.9800000000
H               226.3130000000       65.9820000000      125.1370000000
H               224.9730000000       66.7750000000      125.2220000000
H               223.8370000000       64.9320000000      126.0050000000
H               225.0290000000       63.9830000000      125.6700000000
H               225.1290000000       66.0000000000      127.7080000000
H               225.0430000000       64.4730000000      128.0120000000
H               227.1490000000       64.1250000000      127.1690000000
H               227.2300000000       65.5940000000      126.6530000000
H               228.4090000000       65.3850000000      128.6000000000
H               227.3080000000       66.3020000000      128.8430000000
H               227.2330000000       64.9330000000      129.3240000000
N               226.6640000000       65.0300000000      119.3820000000
C               227.4250000000       66.2570000000      119.2540000000
C               228.8610000000       66.1630000000      119.7620000000
O               229.5720000000       67.1520000000      119.8140000000
C               226.6810000000       67.4130000000      119.9440000000
H               226.1140000000       65.0330000000      120.0430000000
H               227.4990000000       66.4280000000      118.3020000000
H               227.1970000000       68.2300000000      119.8540000000
H               225.8120000000       67.5320000000      119.5290000000
H               226.5640000000       67.2070000000      120.8850000000
N               229.2700000000       64.9610000000      120.1420000000
C               230.6230000000       64.7640000000      120.5920000000
C               231.5960000000       65.1230000000      119.4530000000
O               232.7140000000       65.5310000000      119.6900000000
C               230.8390000000       63.2820000000      121.0130000000
O               230.3620000000       62.4140000000      119.9710000000
C               230.1360000000       62.9970000000      122.3260000000
H               228.7790000000       64.2550000000      120.1450000000
H               230.7890000000       65.3350000000      121.3580000000
H               231.7860000000       63.1190000000      121.1440000000
H               230.4800000000       61.6140000000      120.1970000000
H               230.2790000000       62.0710000000      122.5760000000
H               230.4930000000       63.5770000000      123.0170000000
H               229.1850000000       63.1610000000      122.2270000000
N               231.0640000000       65.1040000000      118.2220000000
C               231.8600000000       65.3900000000      117.0410000000
C               232.3100000000       66.8390000000      116.9830000000
O               232.9440000000       67.2660000000      116.0350000000
H               230.2390000000       64.9260000000      118.0590000000
H               232.6390000000       64.8120000000      117.0310000000
H               231.3420000000       65.1830000000      116.2470000000
N               231.9160000000       67.5860000000      118.0240000000
C               232.2200000000       68.9910000000      118.1700000000
C               233.3340000000       69.1790000000      119.2250000000
O               234.0110000000       70.1980000000      119.2140000000
C               230.9650000000       69.7780000000      118.5870000000
C               229.8990000000       69.8040000000      117.5000000000
C               228.7600000000       70.7160000000      117.8520000000
C               230.5330000000       70.2000000000      116.1580000000
H               231.4530000000       67.2690000000      118.6750000000
H               232.5260000000       69.3310000000      117.3150000000
H               230.5920000000       69.3830000000      119.3910000000
H               231.2170000000       70.6880000000      118.8090000000
H               229.5270000000       68.9120000000      117.4210000000
H               228.1040000000       70.7050000000      117.1380000000
H               228.3460000000       70.4140000000      118.6750000000
H               229.0930000000       71.6190000000      117.9710000000
H               229.8500000000       70.2150000000      115.4690000000
H               230.9330000000       71.0800000000      116.2360000000
H               231.2170000000       69.5550000000      115.9200000000
N               233.4730000000       68.2600000000      120.1800000000
C               234.5040000000       68.3930000000      121.1870000000
C               234.3250000000       69.5600000000      122.1000000000
O               233.5420000000       70.4930000000      121.8130000000
H               232.9810000000       67.5590000000      120.2560000000
H               234.5290000000       67.5820000000      121.7180000000
H               235.3640000000       68.4700000000      120.7460000000
N               234.9740000000       69.4490000000      123.2450000000
C               234.9470000000       70.5120000000      124.2210000000
C               234.5850000000       69.8920000000      125.5550000000
O               235.1890000000       68.8820000000      125.9410000000
H               235.4370000000       68.7620000000      123.4740000000
H               235.8100000000       70.9520000000      124.2710000000
H               234.2980000000       71.1890000000      123.9710000000
N               233.6150000000       70.4450000000      126.2620000000
C               233.1920000000       69.8250000000      127.5350000000
C               231.7030000000       69.4440000000      127.4400000000
O               231.3730000000       68.2960000000      127.6180000000
C               233.4800000000       70.7220000000      128.7810000000
O               234.6110000000       71.5740000000      128.5430000000
C               233.7910000000       69.8280000000      129.9880000000
H               233.1910000000       71.1600000000      126.0420000000
H               233.7240000000       69.0250000000      127.6690000000
H               232.6980000000       71.2690000000      128.9520000000
H               234.7510000000       72.0500000000      129.2210000000
H               233.9700000000       70.3820000000      130.7640000000
H               233.0310000000       69.2540000000      130.1700000000
H               234.5690000000       69.2820000000      129.7950000000
N               230.8260000000       70.3800000000      127.1280000000
C               229.3980000000       70.0710000000      126.9810000000
C               228.7250000000       70.8170000000      125.8110000000
O               228.8480000000       72.0230000000      125.6500000000
C               228.6290000000       70.3200000000      128.2740000000
C               227.3490000000       69.5110000000      128.3540000000
O               226.5160000000       69.6110000000      127.4030000000
O               227.2300000000       68.7330000000      129.3200000000
H               231.0280000000       71.2050000000      126.9950000000
H               229.3630000000       69.1240000000      126.7720000000
H               229.1950000000       70.1000000000      129.0310000000
H               228.4160000000       71.2640000000      128.3440000000
N               228.0090000000       70.0550000000      124.9920000000
C               227.2620000000       70.5490000000      123.8510000000
C               225.7530000000       70.5120000000      124.1420000000
O               225.1360000000       69.4280000000      124.1860000000
C               227.5950000000       69.7140000000      122.6050000000
C               228.7200000000       68.6780000000      122.7910000000
C               230.1050000000       69.2880000000      122.9600000000
O               230.4820000000       69.6990000000      124.0370000000
N               230.8500000000       69.3140000000      121.8860000000
H               227.9450000000       69.2030000000      125.0930000000
H               227.5150000000       71.4700000000      123.6840000000
H               226.7920000000       69.2510000000      122.3200000000
H               227.8450000000       70.3160000000      121.8870000000
H               228.5200000000       68.1340000000      123.5680000000
H               228.7300000000       68.0840000000      122.0240000000
H               230.5420000000       69.0120000000      121.1420000000
H               231.6480000000       69.6330000000      121.9240000000
N               225.1740000000       71.6850000000      124.3730000000
C               223.7360000000       71.7970000000      124.6650000000
C               223.0060000000       72.9190000000      123.9380000000
O               223.5320000000       73.9980000000      123.7260000000
C               223.5480000000       71.8680000000      126.1750000000
C               224.2250000000       73.0190000000      126.8500000000
C               224.0440000000       72.8740000000      128.3550000000
C               224.9040000000       73.9000000000      129.0840000000
N               226.3350000000       73.8000000000      128.6720000000
H               225.5940000000       72.4360000000      124.3670000000
H               223.3140000000       71.0000000000      124.3090000000
H               222.5980000000       71.9130000000      126.3660000000
H               223.8770000000       71.0440000000      126.5660000000
H               225.1680000000       73.0340000000      126.6240000000
H               223.8470000000       73.8580000000      126.5450000000
H               223.1110000000       72.9980000000      128.5900000000
H               224.2900000000       71.9780000000      128.6330000000
H               224.5730000000       74.7930000000      128.8980000000
H               224.8310000000       73.7640000000      130.0420000000
H               226.8580000000       73.9200000000      129.3820000000
H               226.4880000000       72.9950000000      128.3240000000
H               226.5130000000       74.4250000000      128.0640000000
N               221.7640000000       72.6210000000      123.5530000000
C               220.9320000000       73.6080000000      122.8260000000
C               220.3930000000       74.5880000000      123.8650000000
O               219.9760000000       74.1930000000      124.9540000000
C               219.7550000000       72.8980000000      122.1250000000
C               220.2470000000       71.8280000000      121.1440000000
C               218.8890000000       73.9010000000      121.3730000000
C               219.1640000000       70.9570000000      120.4620000000
H               221.3810000000       71.8650000000      123.6970000000
H               221.4550000000       74.0650000000      122.1490000000
H               219.2290000000       72.4690000000      122.8180000000
H               220.7630000000       72.2680000000      120.4500000000
H               220.8540000000       71.2390000000      121.6180000000
H               218.1560000000       73.4360000000      120.9400000000
H               218.5340000000       74.5540000000      121.9970000000
H               219.4250000000       74.3530000000      120.7030000000
H               219.5890000000       70.3190000000      119.8670000000
H               218.6580000000       70.4800000000      121.1390000000
H               218.5650000000       71.5250000000      119.9520000000
N               220.3450000000       75.8650000000      123.5270000000
C               219.8670000000       76.8700000000      124.4510000000
C               218.3920000000       77.1620000000      124.1870000000
O               218.0570000000       77.7020000000      123.1390000000
C               220.6690000000       78.1540000000      124.2910000000
C               222.1570000000       77.9050000000      124.2160000000
O               222.8000000000       77.9530000000      125.2990000000
O               222.6840000000       77.5850000000      123.1230000000
H               220.5870000000       76.1700000000      122.7600000000
H               219.9740000000       76.5350000000      125.3550000000
H               220.3810000000       78.6130000000      123.4870000000
H               220.4810000000       78.7440000000      125.0380000000
N               220.3500000000       76.7350000000      118.6980000000
C               221.5540000000       77.4320000000      119.0910000000
C               222.3420000000       76.5130000000      119.9540000000
O               221.8090000000       76.0290000000      120.9590000000
C               221.2540000000       78.6510000000      119.9120000000
C               222.4040000000       79.5760000000      120.0290000000
C               221.9890000000       80.9020000000      120.6920000000
C               222.0130000000       80.7920000000      122.2090000000
N               222.3810000000       82.1090000000      122.8670000000
H               219.6920000000       76.8440000000      119.2410000000
H               222.0260000000       77.7020000000      118.2880000000
H               220.5060000000       79.1240000000      119.5160000000
H               220.9770000000       78.3750000000      120.8000000000
H               223.1070000000       79.1570000000      120.5500000000
H               222.7710000000       79.7530000000      119.1490000000
H               222.5880000000       81.6100000000      120.4070000000
H               221.0980000000       81.1490000000      120.3970000000
H               221.1420000000       80.5050000000      122.5260000000
H               222.6500000000       80.1100000000      122.4730000000
H               222.3850000000       82.0080000000      123.7510000000
H               223.1890000000       82.3620000000      122.5940000000
H               221.7840000000       82.7300000000      122.6430000000
N               223.5890000000       76.2310000000      119.5850000000
C               224.4550000000       75.3650000000      120.3790000000
C               225.6750000000       76.1020000000      121.0180000000
O               226.5070000000       76.6830000000      120.3470000000
C               224.9430000000       74.1100000000      119.5730000000
C               225.6580000000       73.1730000000      120.4810000000
C               223.7270000000       73.3710000000      118.9210000000
H               223.9560000000       76.5360000000      118.8690000000
H               223.8930000000       75.0660000000      121.1100000000
H               225.5440000000       74.4090000000      118.8730000000
H               225.9570000000       72.4000000000      119.9780000000
H               226.4250000000       73.6210000000      120.8700000000
H               225.0590000000       72.8860000000      121.1880000000
H               224.0440000000       72.5990000000      118.4270000000
H               223.1140000000       73.0810000000      119.6150000000
H               223.2680000000       73.9750000000      118.3160000000
N               225.7280000000       76.0950000000      122.3570000000
C               226.8210000000       76.7480000000      123.0930000000
C               227.8000000000       75.6790000000      123.5560000000
O               227.7130000000       75.1470000000      124.6500000000
C               226.2540000000       77.5600000000      124.2800000000
O               225.2970000000       78.4890000000      123.7480000000
C               227.3400000000       78.3300000000      124.9770000000
H               225.1400000000       75.7170000000      122.8580000000
H               227.2900000000       77.3730000000      122.5180000000
H               225.8510000000       76.9560000000      124.9230000000
H               224.6080000000       78.0740000000      123.5050000000
H               226.9590000000       78.8300000000      125.7160000000
H               228.0090000000       77.7140000000      125.3140000000
H               227.7540000000       78.9440000000      124.3510000000
N               228.7610000000       75.3460000000      122.6830000000
C               229.7500000000       74.3310000000      122.9660000000
C               230.9310000000       74.8820000000      123.7800000000
O               231.8410000000       75.5230000000      123.2410000000
C               230.2780000000       73.6670000000      121.6660000000
C               231.4470000000       72.7560000000      121.9810000000
C               229.1520000000       72.8420000000      120.9950000000
H               228.8470000000       75.7120000000      121.9090000000
H               229.2990000000       73.6590000000      123.5010000000
H               230.5710000000       74.3660000000      121.0600000000
H               231.7680000000       72.3470000000      121.1620000000
H               232.1610000000       73.2730000000      122.3850000000
H               231.1610000000       72.0640000000      122.5970000000
H               229.4910000000       72.4310000000      120.1840000000
H               228.8490000000       72.1510000000      121.6050000000
H               228.4100000000       73.4260000000      120.7750000000
N               230.9210000000       74.6220000000      125.0870000000
C               231.9640000000       75.0750000000      125.9950000000
C               233.3440000000       74.4730000000      125.7360000000
O               233.5730000000       73.2920000000      126.0290000000
C               231.5700000000       74.7810000000      127.4450000000
O               230.2710000000       75.3390000000      127.6900000000
C               232.5690000000       75.3440000000      128.4100000000
H               230.2980000000       74.1710000000      125.4730000000
H               232.0390000000       76.0280000000      125.8320000000
H               231.5510000000       73.8200000000      127.5780000000
H               230.0440000000       75.1820000000      128.4830000000
H               232.2920000000       75.1420000000      129.3170000000
H               233.4390000000       74.9490000000      128.2420000000
H               232.6230000000       76.3060000000      128.2960000000
N               234.2680000000       75.2830000000      125.2200000000
C               235.5980000000       74.8280000000      124.9240000000
C               235.7540000000       74.5000000000      123.4480000000
O               236.8540000000       74.1850000000      123.0060000000
H               234.1290000000       76.1110000000      125.0360000000
H               236.2390000000       75.5110000000      125.1750000000
H               235.7990000000       74.0420000000      125.4550000000
N               234.6680000000       74.5610000000      122.6880000000
C               234.7370000000       74.2520000000      121.2670000000
C               235.1720000000       75.4410000000      120.4390000000
O               234.3230000000       76.2340000000      120.0110000000
H               233.8860000000       74.7780000000      122.9730000000
H               235.3570000000       73.5200000000      121.1280000000
H               233.8670000000       73.9490000000      120.9620000000
N               236.4630000000       75.6050000000      120.2280000000
C               236.9600000000       76.7140000000      119.4320000000
C               236.1340000000       76.8150000000      118.1600000000
O               236.0740000000       75.8680000000      117.3670000000
C               238.4380000000       76.5120000000      119.0530000000
O               238.7910000000       75.1110000000      119.0870000000
C               239.3430000000       77.3370000000      119.9270000000
H               237.0730000000       75.0840000000      120.5370000000
H               236.8870000000       77.5260000000      119.9570000000
H               238.5610000000       76.8220000000      118.1420000000
H               239.5990000000       75.0200000000      118.8760000000
H               240.2660000000       77.1910000000      119.6670000000
H               239.1240000000       78.2760000000      119.8250000000
H               239.2240000000       77.0770000000      120.8540000000
N               235.3580000000       77.8960000000      118.0670000000
C               234.5550000000       78.1600000000      116.8880000000
C               233.4470000000       77.1640000000      116.6040000000
O               233.1460000000       76.9020000000      115.4360000000
H               235.2870000000       78.4900000000      118.6850000000
H               234.1590000000       79.0410000000      116.9780000000
H               235.1430000000       78.1910000000      116.1180000000
N               232.8660000000       76.5960000000      117.6450000000
C               231.7410000000       75.6670000000      117.5040000000
C               230.4560000000       76.3040000000      118.0320000000
O               229.4970000000       75.6210000000      118.3960000000
C               231.9960000000       74.3940000000      118.3190000000
C               233.2180000000       73.5900000000      117.8560000000
C               233.0220000000       73.1970000000      116.4130000000
C               234.3750000000       72.8510000000      115.7780000000
N               234.2690000000       72.5710000000      114.3310000000
H               233.1080000000       76.7340000000      118.4590000000
H               231.6510000000       75.4540000000      116.5620000000
H               232.1140000000       74.6360000000      119.2510000000
H               231.2100000000       73.8270000000      118.2700000000
H               234.0250000000       74.1190000000      117.9530000000
H               233.3290000000       72.8000000000      118.4070000000
H               232.4240000000       72.4350000000      116.3550000000
H               232.6030000000       73.9240000000      115.9260000000
H               234.9910000000       73.5870000000      115.9170000000
H               234.7510000000       72.0780000000      116.2270000000
H               234.4940000000       71.7240000000      114.1750000000
H               233.4320000000       72.7100000000      114.0620000000
H               234.8170000000       73.1100000000      113.8830000000
N               230.4660000000       77.6530000000      118.0780000000
C               229.3500000000       78.4610000000      118.5880000000
C               228.4560000000       79.0520000000      117.5060000000
O               228.9240000000       79.7440000000      116.6140000000
C               229.9050000000       79.6050000000      119.4690000000
C               230.0980000000       79.1820000000      120.9070000000
O               229.3260000000       79.6520000000      121.7650000000
O               231.0540000000       78.4100000000      121.1800000000
H               231.1330000000       78.1240000000      117.8090000000
H               228.7920000000       77.8550000000      119.1000000000
H               230.7530000000       79.9070000000      119.1070000000
H               229.2970000000       80.3600000000      119.4350000000
N               223.2670000000       75.2160000000      114.5720000000
C               223.4990000000       73.9450000000      113.8890000000
C               222.1480000000       73.2950000000      113.5910000000
O               221.1790000000       73.6080000000      114.2810000000
C               224.3050000000       72.9980000000      114.7880000000
C               225.7430000000       73.3430000000      114.8460000000
C               226.2920000000       73.8710000000      115.9900000000
C               226.5740000000       73.1660000000      113.7140000000
C               227.6270000000       74.1910000000      116.0310000000
C               227.9100000000       73.4850000000      113.7430000000
C               228.4230000000       73.9870000000      114.8970000000
O               229.7510000000       74.2920000000      114.9570000000
H               222.7190000000       75.1630000000      115.2330000000
H               223.9920000000       74.1100000000      113.0700000000
H               223.9360000000       73.0190000000      115.6850000000
H               224.2080000000       72.0900000000      114.4620000000
H               225.7580000000       74.0120000000      116.7380000000
H               226.2060000000       72.8250000000      112.9310000000
H               228.0000000000       74.5410000000      116.8070000000
H               228.4480000000       73.3610000000      112.9940000000
H               230.1950000000       73.6870000000      114.5790000000
N               222.1550000000       65.4600000000      116.2730000000
C               223.0040000000       66.2670000000      115.4130000000
C               222.7650000000       65.9280000000      113.9350000000
O               223.1600000000       64.8450000000      113.4730000000
C               224.4850000000       66.0400000000      115.7830000000
C               225.5720000000       66.9210000000      115.1880000000
C               225.3190000000       68.3650000000      115.6240000000
C               226.9360000000       66.4400000000      115.6650000000
H               222.5850000000       65.0000000000      116.8590000000
H               222.7820000000       67.2020000000      115.5460000000
H               224.5540000000       66.1130000000      116.7480000000
H               224.7010000000       65.1230000000      115.5520000000
H               225.5570000000       66.8730000000      114.2190000000
H               226.0050000000       68.9410000000      115.2520000000
H               224.4490000000       68.6520000000      115.3050000000
H               225.3420000000       68.4200000000      116.5920000000
H               227.6290000000       67.0030000000      115.2850000000
H               226.9760000000       66.4880000000      116.6330000000
H               227.0730000000       65.5230000000      115.3810000000
N               227.4240000000       68.4280000000      111.1820000000
C               228.1430000000       69.6480000000      110.8100000000
C               229.1900000000       69.9670000000      111.8680000000
O               228.8610000000       70.1210000000      113.0430000000
C               227.1780000000       70.8180000000      110.6850000000
H               226.5840000000       68.5470000000      111.3200000000
H               228.5750000000       69.5050000000      109.9540000000
H               227.6690000000       71.6180000000      110.4380000000
H               226.5170000000       70.6210000000      110.0030000000
H               226.7320000000       70.9620000000      111.5340000000
N               230.4430000000       70.0550000000      111.4440000000
C               231.5030000000       70.3710000000      112.3990000000
C               231.5200000000       71.8770000000      112.6250000000
O               231.5120000000       72.3410000000      113.7590000000
C               232.8700000000       69.9480000000      111.8770000000
O               233.0480000000       70.4000000000      110.5350000000
C               233.0550000000       68.4610000000      111.9810000000
H               230.6990000000       69.9400000000      110.6310000000
H               231.3250000000       69.8900000000      113.2220000000
H               233.5500000000       70.3620000000      112.4300000000
H               233.8050000000       70.1630000000      110.2570000000
H               233.9310000000       68.2190000000      111.6430000000
H               232.9810000000       68.1900000000      112.9090000000
H               232.3720000000       68.0120000000      111.4580000000
H               220.5325231637       64.4026279227      121.7341363626
H               225.1318165700       63.5228148408      122.9737144345
H               226.1829413187       64.8953580646      118.6333651796
H               217.7033032034       76.9128170821      124.8678851561
H               220.0815443675       77.0304343422      117.8913711369
H               227.4717541534       78.8756867195      117.5191810672
H               224.0456906944       75.5287694152      114.8972938601
H               222.0657984080       72.6306000063      112.8481571184
H               221.5866462900       65.9947522134      116.7213459942
H               222.2907378856       66.5795589356      113.3429304093
H               227.5017888917       67.8205187054      110.5225188668
H               231.5379207248       72.4998054988      111.8428285621
