 449 
 
N               137.0030000000       65.2980000000      128.3160000000
C               137.0310000000       64.5320000000      127.0700000000
C               136.8070000000       65.4610000000      125.9260000000
O               137.5700000000       65.5040000000      124.9710000000
H               136.4280000000       65.0220000000      128.8930000000
H               137.8840000000       64.0800000000      126.9730000000
H               136.3460000000       63.8450000000      127.0830000000
N               139.5950000000       67.6060000000      125.2460000000
C               140.5870000000       66.8060000000      124.5490000000
C               140.2580000000       66.7590000000      123.0550000000
O               141.1330000000       66.8370000000      122.2020000000
C               140.6350000000       65.3440000000      125.0930000000
C               141.0180000000       65.2850000000      126.5740000000
C               141.6280000000       64.5170000000      124.3050000000
C               141.1180000000       63.8870000000      127.1440000000
H               139.1780000000       67.1790000000      125.8650000000
H               141.4510000000       67.2210000000      124.6960000000
H               139.7400000000       64.9840000000      124.9930000000
H               141.8710000000       65.7320000000      126.6930000000
H               140.3620000000       65.7840000000      127.0860000000
H               141.6460000000       63.6120000000      124.6550000000
H               141.3640000000       64.4970000000      123.3720000000
H               142.5110000000       64.9110000000      124.3830000000
H               141.3630000000       63.9360000000      128.0810000000
H               140.2610000000       63.4400000000      127.0570000000
H               141.7930000000       63.3870000000      126.6590000000
N               138.9730000000       66.6070000000      122.7490000000
C               138.5030000000       66.5210000000      121.3570000000
C               138.8230000000       67.8170000000      120.6360000000
O               139.3000000000       67.8020000000      119.5000000000
C               137.0040000000       66.2640000000      121.3220000000
H               138.3470000000       66.5500000000      123.3360000000
H               138.9530000000       65.7850000000      120.9140000000
H               136.7060000000       66.2090000000      120.4000000000
H               136.8080000000       65.4290000000      121.7750000000
H               136.5410000000       66.9900000000      121.7690000000
N               142.7900000000       68.2710000000      120.4530000000
C               143.3340000000       67.3910000000      119.4090000000
C               142.8820000000       67.8710000000      118.0120000000
O               143.7010000000       68.0950000000      117.1160000000
C               142.9150000000       65.9240000000      119.6560000000
O               143.3380000000       65.4850000000      120.9830000000
C               143.5190000000       65.0060000000      118.6170000000
H               142.2650000000       67.8770000000      121.0080000000
H               144.3020000000       67.4320000000      119.4440000000
H               141.9480000000       65.8820000000      119.5940000000
H               142.8040000000       65.7820000000      121.5600000000
H               143.2430000000       64.0930000000      118.7920000000
H               143.2160000000       65.2720000000      117.7350000000
H               144.4860000000       65.0640000000      118.6570000000
N               149.4360000000       64.0630000000      128.8680000000
C               149.1230000000       63.2170000000      127.7070000000
C               149.3320000000       63.8730000000      126.3510000000
O               148.6380000000       64.8160000000      125.9640000000
C               147.6690000000       62.7090000000      127.8040000000
C               147.4040000000       61.6920000000      126.6910000000
C               147.4110000000       62.1100000000      129.1730000000
H               148.7830000000       64.1470000000      129.4210000000
H               149.7610000000       62.4870000000      127.7490000000
H               147.0580000000       63.4540000000      127.6890000000
H               146.4900000000       61.3740000000      126.7540000000
H               147.5410000000       62.1130000000      125.8280000000
H               148.0130000000       60.9430000000      126.7850000000
H               146.4950000000       61.7950000000      129.2210000000
H               148.0160000000       61.3670000000      129.3200000000
H               147.5560000000       62.7850000000      129.8540000000
N               148.4750000000       64.0570000000      123.0470000000
C               147.3860000000       63.6060000000      122.1890000000
C               147.7050000000       62.9770000000      120.8440000000
O               147.1000000000       61.9910000000      120.4490000000
C               146.3490000000       64.7200000000      121.9980000000
C               145.5600000000       64.8760000000      123.2750000000
C               147.0720000000       66.0330000000      121.6880000000
H               148.3610000000       64.8450000000      123.3720000000
H               147.0460000000       62.8540000000      122.6990000000
H               145.7530000000       64.4960000000      121.2660000000
H               144.9010000000       65.5790000000      123.1640000000
H               145.1110000000       64.0420000000      123.4820000000
H               146.1610000000       65.1080000000      124.0000000000
H               146.4200000000       66.7410000000      121.5660000000
H               147.6610000000       66.2600000000      122.4240000000
H               147.5940000000       65.9320000000      120.8770000000
N               150.4100000000       58.8820000000      120.2480000000
C               150.1140000000       57.4510000000      120.0480000000
C               148.6330000000       57.1390000000      119.9530000000
O               147.7800000000       57.9480000000      120.3300000000
C               150.7660000000       56.6240000000      121.1380000000
C               150.4120000000       57.0850000000      122.5460000000
C               150.3570000000       55.9040000000      123.5110000000
O               151.2730000000       55.6970000000      124.2710000000
N               149.2470000000       55.1600000000      123.4900000000
H               149.7400000000       59.3510000000      120.5120000000
H               150.4900000000       57.2130000000      119.1860000000
H               150.5010000000       55.6970000000      121.0330000000
H               151.7290000000       56.6580000000      121.0270000000
H               151.0690000000       57.7280000000      122.8540000000
H               149.5550000000       57.5380000000      122.5350000000
H               148.6180000000       55.3420000000      122.9320000000
H               149.1620000000       54.5000000000      124.0340000000
N               148.3170000000       55.9780000000      119.3820000000
C               146.9250000000       55.5710000000      119.2380000000
C               146.4820000000       55.1620000000      120.6640000000
O               147.2660000000       54.5360000000      121.4080000000
C               146.7970000000       54.3620000000      118.2920000000
C               147.4050000000       54.6080000000      116.9220000000
O               146.6770000000       54.5260000000      115.9210000000
O               148.6300000000       54.9020000000      116.8880000000
H               148.8910000000       55.4160000000      119.0740000000
H               146.3830000000       56.2830000000      118.8630000000
H               147.2290000000       53.5940000000      118.6980000000
H               145.8590000000       54.1380000000      118.1880000000
N               145.2650000000       55.5400000000      121.0570000000
C               144.7540000000       55.1950000000      122.3740000000
C               143.2780000000       55.4830000000      122.5590000000
O               142.8210000000       56.6280000000      122.4600000000
C               145.5840000000       55.8930000000      123.4550000000
C               145.3370000000       55.3290000000      124.8400000000
O               145.0110000000       54.1540000000      124.9870000000
N               145.5330000000       56.1510000000      125.8610000000
H               144.7220000000       55.9980000000      120.5720000000
H               144.8420000000       54.2330000000      122.4590000000
H               146.5260000000       55.8080000000      123.2390000000
H               145.3770000000       56.8410000000      123.4540000000
H               145.4320000000       55.8680000000      126.6670000000
H               145.7610000000       56.9680000000      125.7180000000
N               142.5310000000       54.4310000000      122.8440000000
C               141.1110000000       54.5500000000      123.0730000000
C               140.7330000000       54.9710000000      124.5000000000
O               140.6330000000       54.1400000000      125.4030000000
C               140.3630000000       53.2480000000      122.6990000000
O               140.8450000000       52.8160000000      121.4180000000
C               138.8320000000       53.4860000000      122.5960000000
H               142.8360000000       53.6290000000      122.9090000000
H               140.8290000000       55.2700000000      122.4870000000
H               140.5230000000       52.5830000000      123.3870000000
H               140.4520000000       52.1080000000      121.1950000000
H               138.3900000000       52.6550000000      122.3610000000
H               138.4950000000       53.8010000000      123.4490000000
H               138.6530000000       54.1510000000      121.9130000000
N               140.5940000000       56.2760000000      124.7080000000
C               140.2480000000       56.8070000000      126.0260000000
C               138.8010000000       56.5420000000      126.4310000000
O               137.9000000000       57.1280000000      125.8460000000
C               140.4950000000       58.2910000000      126.0440000000
C               141.9240000000       58.7870000000      126.2930000000
C               142.9170000000       58.1150000000      125.3710000000
C               141.9710000000       60.3080000000      126.0920000000
H               140.6960000000       56.8740000000      124.0980000000
H               140.8110000000       56.3450000000      126.6670000000
H               140.2010000000       58.6500000000      125.1920000000
H               139.9240000000       58.6780000000      126.7270000000
H               142.1710000000       58.5620000000      127.2040000000
H               143.8080000000       58.4510000000      125.5550000000
H               142.8970000000       57.1560000000      125.5170000000
H               142.6840000000       58.3060000000      124.4490000000
H               142.8730000000       60.6280000000      126.2480000000
H               141.7050000000       60.5230000000      125.1840000000
H               141.3640000000       60.7360000000      126.7160000000
N               138.6010000000       55.5630000000      127.3180000000
C               137.2630000000       55.2430000000      127.8390000000
C               136.8340000000       56.3330000000      128.8120000000
O               137.4190000000       56.5100000000      129.8660000000
C               137.2610000000       53.8530000000      128.5700000000
O               138.0920000000       53.9280000000      129.7380000000
C               137.7240000000       52.7410000000      127.6370000000
H               139.2300000000       55.0690000000      127.6330000000
H               136.6420000000       55.1950000000      127.0950000000
H               136.3540000000       53.6400000000      128.8410000000
H               138.1030000000       54.7180000000      130.0240000000
H               137.7140000000       51.8950000000      128.1110000000
H               137.1280000000       52.6900000000      126.8730000000
H               138.6250000000       52.9290000000      127.3310000000
N               135.8030000000       57.0760000000      128.4330000000
C               135.3100000000       58.1580000000      129.3140000000
C               134.1110000000       57.6040000000      130.0490000000
O               133.1330000000       57.1900000000      129.4310000000
C               135.0140000000       59.4390000000      128.5880000000
C               136.2610000000       59.9370000000      127.8300000000
C               134.5440000000       60.4970000000      129.5530000000
C               137.5260000000       59.9530000000      128.6750000000
H               135.3770000000       56.9830000000      127.6920000000
H               136.0040000000       58.4170000000      129.9400000000
H               134.3090000000       59.2640000000      127.9460000000
H               136.4060000000       59.3710000000      127.0560000000
H               136.0920000000       60.8330000000      127.4990000000
H               134.3570000000       61.3170000000      129.0690000000
H               133.7370000000       60.1940000000      129.9980000000
H               135.2350000000       60.6620000000      130.2140000000
H               138.2690000000       60.2750000000      128.1400000000
H               137.3990000000       60.5390000000      129.4370000000
H               137.7180000000       59.0550000000      128.9870000000
N               130.8850000000       57.8100000000      131.8530000000
C               129.7560000000       58.7220000000      131.8890000000
C               128.5440000000       58.1390000000      132.5940000000
O               127.6990000000       58.8520000000      133.0740000000
C               129.3260000000       59.1580000000      130.4580000000
C               130.4930000000       59.8250000000      129.7170000000
C               128.8510000000       57.9470000000      129.6850000000
H               130.7270000000       57.0580000000      131.4660000000
H               130.0670000000       59.4900000000      132.3930000000
H               128.6050000000       59.8020000000      130.5320000000
H               130.2040000000       60.0890000000      128.8290000000
H               130.7830000000       60.6090000000      130.2090000000
H               131.2300000000       59.1990000000      129.6440000000
H               128.5830000000       58.2170000000      128.7930000000
H               129.5710000000       57.2990000000      129.6240000000
H               128.0950000000       57.5470000000      130.1420000000
N               129.9480000000       53.5260000000      129.1610000000
C               130.9380000000       54.5800000000      128.9120000000
C               130.9790000000       55.0710000000      127.4750000000
O               130.2980000000       54.4970000000      126.6090000000
C               132.3590000000       54.1570000000      129.3050000000
O               132.6950000000       52.9350000000      128.6520000000
C               132.5470000000       54.0600000000      130.8240000000
H               130.0190000000       52.8320000000      128.6590000000
H               130.6350000000       55.3080000000      129.4770000000
H               132.9700000000       54.8500000000      129.0080000000
H               133.4740000000       52.7070000000      128.8680000000
H               133.4580000000       53.7900000000      131.0210000000
H               132.3720000000       54.9240000000      131.2280000000
H               131.9310000000       53.4040000000      131.1850000000
N               131.6770000000       56.1680000000      127.2270000000
C               131.8290000000       56.7780000000      125.9260000000
C               133.2970000000       56.9370000000      125.6420000000
O               133.9790000000       57.7150000000      126.2930000000
C               131.1650000000       58.1710000000      125.8660000000
C               129.6740000000       58.0550000000      126.1570000000
C               131.4520000000       58.8040000000      124.5170000000
C               129.0030000000       59.3860000000      126.3980000000
H               132.0940000000       56.5950000000      127.8460000000
H               131.3990000000       56.2070000000      125.2700000000
H               131.5370000000       58.7520000000      126.5480000000
H               129.2400000000       57.6120000000      125.4110000000
H               129.5460000000       57.4910000000      126.9360000000
H               131.0360000000       59.6790000000      124.4750000000
H               132.4110000000       58.8960000000      124.4000000000
H               131.0930000000       58.2420000000      123.8130000000
H               128.0600000000       59.2460000000      126.5770000000
H               129.4150000000       59.8230000000      127.1600000000
H               129.1030000000       59.9460000000      125.6120000000
N               133.7900000000       56.1540000000      124.6900000000
C               135.2130000000       56.1280000000      124.3180000000
C               135.6050000000       57.0330000000      123.1540000000
O               134.9090000000       57.0900000000      122.1280000000
C               135.6490000000       54.7160000000      124.0120000000
C               135.2780000000       53.6990000000      125.1240000000
O               134.7790000000       54.1190000000      126.1890000000
O               135.5050000000       52.5000000000      124.9280000000
H               133.3050000000       55.6120000000      124.2310000000
H               135.6730000000       56.4820000000      125.0950000000
H               135.2440000000       54.4340000000      123.1770000000
H               136.6100000000       54.7030000000      123.8790000000
N               136.7530000000       57.6850000000      123.3240000000
C               137.3280000000       58.5710000000      122.3120000000
C               138.5080000000       57.8630000000      121.6550000000
O               139.0990000000       57.0010000000      122.2990000000
C               137.7840000000       59.9160000000      122.9610000000
C               136.6240000000       60.5930000000      123.6800000000
C               138.3800000000       60.8190000000      121.9240000000
C               136.9670000000       61.9390000000      124.2540000000
H               137.2260000000       57.6250000000      124.0390000000
H               136.6600000000       58.7780000000      121.6400000000
H               138.4670000000       59.7230000000      123.6230000000
H               135.8850000000       60.6940000000      123.0600000000
H               136.3160000000       60.0150000000      124.3950000000
H               138.6590000000       61.6500000000      122.3400000000
H               139.1490000000       60.3860000000      121.5210000000
H               137.7190000000       61.0060000000      121.2390000000
H               136.1870000000       62.3110000000      124.6950000000
H               137.6870000000       61.8430000000      124.8970000000
H               137.2490000000       62.5330000000      123.5410000000
N               138.8410000000       58.1990000000      120.4050000000
C               139.9470000000       57.5570000000      119.6990000000
C               141.1050000000       58.4920000000      119.3650000000
O               140.9360000000       59.4310000000      118.5950000000
C               139.4400000000       56.9130000000      118.4380000000
C               138.4780000000       55.7680000000      118.7230000000
O               137.3410000000       55.7780000000      118.2180000000
O               138.9020000000       54.8390000000      119.4420000000
H               138.4330000000       58.8020000000      119.9480000000
H               140.3030000000       56.8930000000      120.3100000000
H               138.9940000000       57.5800000000      117.8930000000
H               140.1910000000       56.5810000000      117.9220000000
N               142.2970000000       58.1770000000      119.8600000000
C               143.4480000000       58.9930000000      119.6110000000
C               144.3790000000       58.2700000000      118.6500000000
O               144.4580000000       57.0390000000      118.6990000000
C               144.1500000000       59.3620000000      120.9140000000
C               143.2510000000       60.1180000000      121.8680000000
C               143.9590000000       60.4570000000      123.1820000000
C               142.8120000000       61.3740000000      121.1690000000
H               142.4490000000       57.4840000000      120.3470000000
H               143.1690000000       59.8260000000      119.2000000000
H               144.4670000000       58.5540000000      121.3460000000
H               144.9310000000       59.9020000000      120.7150000000
H               142.4910000000       59.5640000000      122.1040000000
H               143.3500000000       60.9400000000      123.7630000000
H               144.2410000000       59.6380000000      123.6190000000
H               144.7350000000       61.0090000000      122.9980000000
H               142.2320000000       61.8850000000      121.7550000000
H               143.5900000000       61.9060000000      120.9410000000
H               142.3310000000       61.1430000000      120.3590000000
N               145.0210000000       59.0100000000      117.7500000000
C               145.8780000000       58.4250000000      116.7390000000
C               147.1520000000       59.2410000000      116.5580000000
O               147.1050000000       60.4630000000      116.4570000000
C               145.1220000000       58.3830000000      115.4200000000
C               143.8050000000       57.6200000000      115.4680000000
C               144.0090000000       56.1560000000      115.7860000000
C               142.7370000000       55.3880000000      115.5430000000
N               142.9970000000       53.9250000000      115.7510000000
H               144.9680000000       59.8680000000      117.7130000000
H               146.1260000000       57.5310000000      117.0220000000
H               144.9450000000       59.2930000000      115.1330000000
H               145.6920000000       57.9790000000      114.7470000000
H               143.2260000000       58.0180000000      116.1370000000
H               143.3520000000       57.7050000000      114.6140000000
H               144.7220000000       55.7950000000      115.2360000000
H               144.2840000000       56.0540000000      116.7110000000
H               142.0420000000       55.6930000000      116.1470000000
H               142.4180000000       55.5460000000      114.6410000000
H               142.2470000000       53.4670000000      115.6080000000
H               143.6240000000       53.6510000000      115.1820000000
H               143.2740000000       53.7880000000      116.5860000000
N               135.6510000000       61.4920000000      114.1330000000
C               135.4170000000       60.7140000000      115.3580000000
C               135.4290000000       61.6270000000      116.5550000000
O               134.4510000000       61.7330000000      117.2580000000
C               136.4960000000       59.6540000000      115.5530000000
C               136.7950000000       58.8470000000      114.2900000000
O               135.8820000000       58.6910000000      113.4470000000
O               137.9150000000       58.3340000000      114.1510000000
H               136.3440000000       61.2310000000      113.6950000000
H               134.5540000000       60.2790000000      115.2700000000
H               137.3120000000       60.0850000000      115.8530000000
H               136.2200000000       59.0470000000      116.2580000000
N               136.5460000000       62.3380000000      116.7340000000
C               136.7340000000       63.2180000000      117.8800000000
C               135.5440000000       64.1500000000      117.9680000000
O               134.9240000000       64.2800000000      119.0270000000
C               138.0220000000       64.0470000000      117.7140000000
C               139.3320000000       63.2300000000      117.6710000000
C               140.5110000000       64.1360000000      117.3980000000
C               139.5250000000       62.4790000000      118.9740000000
H               137.2130000000       62.3200000000      116.1920000000
H               136.8100000000       62.6870000000      118.6880000000
H               137.9530000000       64.5640000000      116.8960000000
H               138.0780000000       64.6810000000      118.4460000000
H               139.2720000000       62.5840000000      116.9500000000
H               141.3250000000       63.6090000000      117.3740000000
H               140.3880000000       64.5790000000      116.5440000000
H               140.5770000000       64.8010000000      118.1010000000
H               140.3500000000       61.9700000000      118.9350000000
H               139.5700000000       63.1110000000      119.7080000000
H               138.7790000000       61.8750000000      119.1130000000
N               132.1220000000       62.4730000000      118.9560000000
C               132.1490000000       62.3030000000      120.4090000000
C               131.6820000000       63.5840000000      121.1460000000
O               131.0140000000       63.4860000000      122.1500000000
C               133.6070000000       61.9330000000      120.8580000000
C               133.7130000000       61.8710000000      122.3750000000
C               134.0910000000       60.6470000000      120.1930000000
H               132.8580000000       62.2500000000      118.5720000000
H               131.5350000000       61.5900000000      120.6430000000
H               134.1990000000       62.6400000000      120.5580000000
H               134.6210000000       61.6410000000      122.6270000000
H               133.4820000000       62.7350000000      122.7510000000
H               133.1030000000       61.1970000000      122.7150000000
H               134.9920000000       60.4480000000      120.4910000000
H               133.5020000000       59.9160000000      120.4350000000
H               134.0870000000       60.7590000000      119.2300000000
N               127.9790000000       63.2930000000      121.1320000000
C               127.5430000000       62.0990000000      121.9010000000
C               127.6440000000       62.4850000000      123.3530000000
O               126.7710000000       62.1640000000      124.1630000000
C               128.4440000000       60.8890000000      121.6500000000
C               127.9550000000       59.6220000000      122.3380000000
C               128.9910000000       58.5120000000      122.2070000000
N               129.4090000000       58.2970000000      120.8250000000
C               128.6130000000       57.8290000000      119.8900000000
N               129.0440000000       57.6940000000      118.6520000000
N               127.3550000000       57.5290000000      120.1890000000
H               128.7040000000       63.1690000000      120.6860000000
H               126.6460000000       61.8450000000      121.6340000000
H               128.5020000000       60.7290000000      120.6950000000
H               129.3410000000       61.0920000000      121.9590000000
H               127.7820000000       59.8020000000      123.2750000000
H               127.1150000000       59.3370000000      121.9450000000
H               129.7670000000       58.7330000000      122.7460000000
H               128.6240000000       57.6880000000      122.5630000000
H               130.2200000000       58.4870000000      120.6110000000
H               129.8510000000       57.9130000000      118.4510000000
H               128.5180000000       57.3870000000      118.0450000000
H               127.0650000000       57.6410000000      120.9910000000
H               126.8300000000       57.2220000000      119.5810000000
N               128.7320000000       63.1820000000      123.6690000000
C               129.0180000000       63.6550000000      125.0020000000
C               127.9120000000       64.6130000000      125.4490000000
O               127.3740000000       64.4660000000      126.5480000000
C               130.3520000000       64.3930000000      125.0130000000
C               131.5230000000       63.5530000000      125.4820000000
C               132.8110000000       64.0050000000      125.2840000000
C               131.3410000000       62.3430000000      126.1450000000
C               133.8970000000       63.2620000000      125.7350000000
C               132.4450000000       61.5950000000      126.6140000000
C               133.7150000000       62.0740000000      126.4030000000
H               129.3350000000       63.3940000000      123.0940000000
H               129.0630000000       62.8980000000      125.6060000000
H               130.5380000000       64.7180000000      124.1180000000
H               130.2750000000       65.1710000000      125.5870000000
H               132.9540000000       64.8130000000      124.8460000000
H               130.4790000000       62.0210000000      126.2820000000
H               134.7600000000       63.5740000000      125.5820000000
H               132.3130000000       60.7890000000      127.0590000000
H               134.4500000000       61.5960000000      126.7110000000
N               124.7900000000       62.7710000000      126.1820000000
C               124.8980000000       62.1730000000      127.5060000000
C               124.5930000000       63.2350000000      128.5700000000
O               123.8660000000       62.9690000000      129.5050000000
C               126.3290000000       61.5910000000      127.7270000000
H               125.4930000000       62.6910000000      125.6930000000
H               124.2580000000       61.4480000000      127.5790000000
H               126.3850000000       61.1970000000      128.6120000000
H               126.5090000000       60.9110000000      127.0590000000
H               126.9840000000       62.3020000000      127.6480000000
H               137.8101056759       65.2569431079      128.7120994314
H               136.0152259294       66.0718139034      125.9255565269
H               139.9966163303       68.3124325740      125.6328557115
H               138.6469917832       68.6942501592      121.0826019098
H               143.4659942325       68.6213365544      120.9328917548
H               141.9099177483       68.0058019734      117.8199465597
H               150.1266697409       63.7066831341      129.3218872108
H               150.0513123203       63.5412779414      125.7406310446
H               148.5623887746       63.4930995094      123.7429737343
H               148.4201775154       63.3693481272      120.2655675766
H               151.0534082964       58.9714987238      120.8709090966
H               134.1082830794       57.5716951197      131.0484743684
H               131.5668138636       58.1933757418      131.4078563197
H               128.4365213545       57.1474171267      132.6661924249
H               130.0239478550       53.2369847361      130.0099417533
H               148.0391953931       58.7811432748      116.5203685412
H               134.9391177480       61.4151692455      113.5877287882
H               135.2535905595       64.6674781975      117.1630908921
H               131.4693508396       61.9617302094      118.6057825324
H               131.9330203118       64.4846084224      120.7911855802
H               127.3375622672       63.5221643617      120.5437472225
H               127.6246955600       65.3597322271      124.8491273970
H               124.1144910741       62.3829892982      125.7312945682
H               124.9932931079       64.1482353979      128.4940622903
