 297 
 
N               177.7187379577       64.5116349101      115.7876871027
C               177.6133739650       64.4705427370      117.2451233788
C               176.1488844510       64.2494927341      117.6893775281
O               175.4126323172       65.1697443978      118.0178086189
C               178.1660859440       65.7697430364      117.8442746032
C               178.5322915951       65.6437234382      119.3241043948
C               179.6941638180       64.7005605951      119.6512981060
C               181.0406426575       65.0993377670      119.0461208372
N               181.3061896561       64.4396180367      117.7334489537
H               178.6250611374       64.7794339613      115.4141142978
H               178.1985594049       63.6052898784      117.5801271296
H               179.0185057515       66.1076427111      117.2531036132
H               177.3884189634       66.5308997663      117.7364297890
H               178.7703070260       66.6427477936      119.6909777143
H               177.6455950940       65.3067262977      119.8636049091
H               179.7961912771       64.7093878581      120.7361826188
H               179.4443264133       63.6805464172      119.3654042550
H               181.0867216490       66.1811986467      118.9230265895
H               181.8358488702       64.7897851730      119.7242966540
H               182.2965127021       64.5568000077      117.4840176768
H               181.0798865836       63.4122800264      117.7861312744
H               180.7502262029       64.8397742962      116.9608886000
N               175.8036050508       62.9568079226      117.8054060637
C               174.4794531142       62.5140540252      118.1844080347
C               174.5151197414       61.9314293671      119.6047198121
O               175.5526804349       61.8758869270      120.2506355729
C               173.8868932086       61.5738340336      117.1194098765
C               174.6936833612       60.3292084928      116.8812270393
C               174.4098762672       59.1534555660      117.5680790119
C               175.7079660901       60.3143586874      115.9296435126
C               175.0922498473       57.9860519532      117.2892587314
C               176.4010044311       59.1505479267      115.6459370985
C               176.0809139880       57.9719200729      116.3087234499
O               176.6963948120       56.7954386884      116.0269692025
H               176.4461143442       62.2254896368      117.5382939465
H               173.8458984153       63.4055980438      118.2290544464
H               172.8713305064       61.3107299869      117.4182746158
H               173.8151107114       62.1582936767      116.1989340381
H               173.6243239050       59.1451599536      118.3097427368
H               175.9306818845       61.2169218024      115.3766841872
H               174.8363331251       57.0705907502      117.7986234924
H               177.1654095474       59.1491296195      114.8816293396
H               177.3344589201       56.9163362456      115.3111756348
N               173.3308898613       61.5229582750      120.0766258430
C               173.1116039314       61.1886214518      121.4682937110
C               172.5932709721       59.7444738389      121.5875109694
O               171.4059832288       59.4894412759      121.7176069755
C               172.1086405882       62.1821882861      122.0965452498
O               172.5782449993       63.5006506399      121.8728831521
C               171.9543797770       61.9146208773      123.5939412042
H               172.4863000930       61.5743891078      119.5189100964
H               174.0781318411       61.2918261388      121.9702324361
H               171.1449884343       62.0429835125      121.5930925999
H               171.8589381162       64.0155947599      121.4749734120
H               171.2921851500       62.6608823889      124.0213428278
H               171.5369787621       60.9252321676      123.7433267776
H               172.9223195557       61.9925577115      124.0802924314
N               173.5785318622       58.8383739223      121.6095848152
C               173.3893632648       57.4019683951      121.6730110730
C               172.7826088314       56.8215120004      120.3953436002
O               172.0392459055       57.4509258253      119.6623497040
C               172.4843684608       56.9859995455      122.8428872105
H               174.5327985123       59.1576944642      121.4371792045
H               174.3694018585       56.9473156664      121.8209486571
H               172.3648530115       55.9055745677      122.8223286590
H               172.9573641357       57.3011382786      123.7675752368
H               171.5135600794       57.4610734470      122.7284493006
N               173.1315812786       55.5318438716      120.1848205423
C               172.3065801621       54.6455769172      119.3806321424
C               171.8399878684       53.5074342389      120.2889252056
O               170.9562938342       53.7076872898      121.1225137174
C               172.9090297916       54.1574390096      118.0773289786
C               171.8481417626       53.2243986014      117.3964718781
O               170.9415713056       52.7881891828      118.1439266890
O               171.9850931167       53.0103535789      116.1805123626
H               173.7703007850       55.0906646121      120.8338932088
H               171.3970766285       55.1994007846      119.1285683109
H               173.1121592630       54.9819689290      117.3938010039
H               173.8230654211       53.5774570812      118.2048277083
N               172.6489027560       52.4359594751      120.3553134050
C               172.1830726366       51.1816357745      120.9307099880
C               172.8555953389       51.0350643390      122.3092388276
O               173.5049442490       50.0643346973      122.6568561043
C               172.4582103081       49.9751259696      120.0253968815
C               173.2742316943       50.2143448045      118.7209872280
O               172.9920880089       49.4975827665      117.7535276387
O               174.2061834268       51.0650245676      118.7519588119
H               173.2703883747       52.2490852553      119.5678045147
H               171.0997027026       51.2769747796      121.0960382438
H               173.0264450024       49.2371717496      120.6025984174
H               171.5241831948       49.5085585955      119.7108047266
N               172.6271241305       52.0995336322      123.0973879745
C               173.4173955707       52.3461371124      124.2800715985
C               174.7839089992       52.9314830371      123.8960747147
O               175.3063245368       52.6351415486      122.8278053887
H               172.0933666191       52.8566904439      122.6874570738
H               172.8593093949       52.9907225767      124.9558214091
H               173.6018553606       51.3736391482      124.7510518267
N               175.3305779043       53.7118921775      124.8374466975
C               176.5317220625       54.5327648064      124.7160632824
C               176.3339453425       55.5467371950      123.5825398467
O               175.4858314716       55.3830436353      122.7211243554
C               177.8329307354       53.7120860978      124.4561147631
O               177.9218207817       53.2871150129      123.1227439094
C               177.9269575299       52.5492758520      125.4459260431
H               174.8233732578       53.8140517509      125.7040418361
H               176.6554371377       55.0594163413      125.6636841465
H               178.6900481861       54.3804606261      124.5967866124
H               177.0725198009       52.8530634427      122.9112612124
H               178.8616205639       52.0199767596      125.2830430156
H               177.9047759981       52.9149467713      126.4675702642
H               177.1100492298       51.8471802537      125.2945177445
N               177.1100891200       56.6475881702      123.6497862026
C               177.1618239109       57.5223564469      122.5031295516
C               178.4437355648       57.2838414089      121.6905632773
O               179.3960096951       56.6601072562      122.1261037177
C               176.9425322904       59.0190370861      122.7884376831
O               176.3511352581       59.5317262182      121.6070985033
H               177.9200640542       56.6530386123      124.2550675126
H               176.3332731967       57.2133984181      121.8550756543
H               176.2643187334       59.1392063452      123.6414362290
H               177.8906838010       59.5171755570      123.0061426952
H               176.4424755065       60.4957474103      121.5297137165
N               178.3378408528       57.8062388057      120.4656712715
C               179.1639277602       57.4807134433      119.3274307165
C               179.3060014932       58.7496124172      118.4927648376
O               178.8607567428       59.8276470243      118.8656357397
C               178.5005024114       56.3224266955      118.5545809820
C               178.6429646124       54.9717246319      119.2796543735
C               177.3157799117       54.2158750030      119.4329160039
C               177.6086244319       52.8008697521      119.9210594254
N               176.3850843979       52.0311905662      120.2712342116
H               177.5493422651       58.4170009247      120.2764793969
H               180.1515766484       57.1740792602      119.6903170851
H               177.4439009687       56.5642251291      118.4346538680
H               178.9271170809       56.2429010131      117.5570042967
H               179.3378347935       54.3413231554      118.7257966923
H               179.0638969114       55.1208537231      120.2731114141
H               176.6818713162       54.7292855954      120.1580239990
H               176.7873047084       54.1846071396      118.4785943329
H               178.1453341822       52.2526519540      119.1467623532
H               178.2281247385       52.8606168395      120.8188433323
H               175.8622952533       52.4712958000      121.0507331283
H               175.7200676265       51.8873723082      119.4841524860
H               176.6442664095       51.0892981767      120.5841428438
N               179.9590628516       58.6278840629      117.3324342567
C               180.1163417622       59.7500418441      116.4272062116
C               180.4400765915       59.1503541547      115.0567477822
O               180.9605758131       58.0509154976      114.9594568675
C               181.1802265159       60.7426890441      116.9841176330
O               180.5198623119       61.7593016944      117.7168653334
C               182.0401658060       61.4005187308      115.9138469583
H               180.4004721054       57.7690547814      117.0260773244
H               179.1611046133       60.2883019103      116.3674050355
H               181.8331527445       60.1718562558      117.6596757931
H               179.8993543067       61.3280289468      118.3372239679
H               182.8064601149       62.0053649841      116.3887902111
H               182.5345143569       60.6423960806      115.3141237871
H               181.4377164804       62.0276873436      115.2642150613
N               174.7639279058       55.6328480416      110.3640735655
C               174.6795086374       55.1495643432      111.7281512421
C               174.0353347375       53.7643776267      111.6394627444
O               172.9450339925       53.5979418086      111.1094108949
C               173.8410039537       56.0857606766      112.6288140745
C               174.4079014309       57.5091785648      112.5684502385
C               173.8127704317       55.5461990969      114.0565521312
C               173.6218000186       58.5149025432      113.4030388591
H               173.9572864756       55.4636328878      109.7714631451
H               175.7019580887       55.0936776972      112.1139756343
H               172.8250077813       56.0967394522      112.2239379972
H               175.4475177554       57.4956424093      112.8996822716
H               174.4034349968       57.8383344414      111.5262662320
H               173.1701261397       56.1639856501      114.6779276267
H               173.4187027892       54.5331929070      114.0917303534
H               174.8102501390       55.5511500022      114.4877937421
H               173.9784600350       59.5236561395      113.2051648890
H               172.5624241248       58.4746823809      113.1635501224
H               173.7357151523       58.3289209201      114.4669964601
N               174.7446761970       52.7525685579      112.1566736449
C               174.2775043088       51.3822225194      112.0548024869
C               174.2515189038       50.9785136672      110.5738209957
O               175.2797335243       50.7721486261      109.9494491129
H               175.6718389962       52.9200031863      112.5087193233
H               174.9752753580       50.7378618217      112.5870324517
H               173.2850643106       51.3079787304      112.5084465440
N               172.6090643191       65.5777148585      117.5395145838
C               172.0947007705       65.4522880885      118.8813536653
C               170.9648381883       64.4421820238      119.0645006597
O               170.4933612035       64.2615866218      120.1906790569
H               173.6097690001       65.4514790462      117.4150304567
H               172.9177688137       65.1955688922      119.5515567467
H               171.6732781157       66.4107541651      119.2128170242
N               170.4978293385       63.8160466685      117.9928668258
C               169.3132060810       62.9973441344      118.1070316301
C               169.5796822161       61.8404710034      119.0647053400
O               170.6489145239       61.2453331604      119.0874719022
C               168.8688645952       62.4087795888      116.7660612138
C               167.5946316284       61.6652421681      116.9920191488
N               166.5016889143       62.2887792333      117.5283394143
C               167.3187495803       60.3355403175      116.8301946779
C               165.5918177510       61.3599061854      117.6689257294
N               166.0348293208       60.1542506389      117.2575563881
H               170.9852603858       63.8298053524      117.1030423434
H               168.5024737908       63.6168184724      118.5070587147
H               168.7152033664       63.2158912276      116.0471656960
H               169.6314919267       61.7277434152      116.3852576407
H               167.9106190076       59.5303794818      116.4538691539
H               164.6178847199       61.5355589945      118.0781563719
H               165.5624062051       59.2598091366      117.3164657048
N               168.5513158667       61.5491859918      119.8709987390
C               168.5907053510       60.4731425158      120.8364618387
C               167.9060223014       59.2326178873      120.2516863970
O               166.6996529597       59.0391763269      120.3488809634
C               167.9171735370       60.9168436598      122.1337059178
C               168.1534403236       59.8982457228      123.2282648320
O               168.1737029341       58.6870792355      123.0149410460
N               168.3074958178       60.3979497229      124.4521843980
H               167.6573178100       61.9867284062      119.6915905618
H               169.6457344515       60.2372594530      121.0122495950
H               168.3006704365       61.8971144195      122.4132779017
H               166.8396404681       60.9893998216      121.9548343512
H               168.4244117810       59.7773299772      125.2391168228
H               168.2938313827       61.3906145863      124.6170660415
N               168.7480818159       58.3999392930      119.6290559044
C               168.3176350430       57.1844806346      118.9798217052
C               167.9906940844       56.0581100327      119.9741447439
O               167.6088639821       54.9708865224      119.5590642773
C               169.3883529296       56.6795392914      118.0066872478
C               169.4860099964       57.4662431833      116.7342241583
C               170.4617758943       58.4460957443      116.5914687984
C               168.6198827100       57.2151736026      115.6754149417
C               170.5715922248       59.1669111761      115.4146526914
C               168.7309921307       57.9365402135      114.4990356326
C               169.7039612082       58.9143022002      114.3656513820
H               169.7399083266       58.5988069601      119.6175145346
H               167.3784895457       57.3776093289      118.4380845494
H               170.3468205268       56.7319901518      118.5242595079
H               169.1655455940       55.6326892231      117.7777448556
H               171.1430861842       58.6364870405      117.4080394789
H               167.8555254488       56.4548934584      115.7755873428
H               171.3392719271       59.9212237224      115.3224452259
H               168.0459519272       57.7304189406      113.6906907779
H               169.7801241492       59.4725954517      113.4455056969
N               168.1460866743       56.3233414147      121.2751047138
C               167.6667258670       55.3878630222      122.2788066866
C               166.1701495429       55.6607688998      122.5064715618
O               165.2998671039       54.8244886648      122.3043272347
C               168.4868803224       55.5033671162      123.5648461513
C               168.1229066924       54.3648375095      124.5251617940
C               168.5689829222       54.5794798932      125.9741426151
C               170.0770286517       54.7675282937      126.1449087369
N               170.4472559600       56.2144104695      126.1177924662
H               168.3765759301       57.2584289997      121.5960620991
H               167.7577454073       54.3842292763      121.8488708788
H               169.5323365548       55.4351041119      123.2585705551
H               168.2733650609       56.4792376216      124.0024783813
H               167.0390226829       54.2374649187      124.5153509106
H               168.5470621978       53.4377350525      124.1365104039
H               168.0288692409       55.4278915507      126.3932313239
H               168.2606459565       53.6972473324      126.5336819225
H               170.3928626056       54.3575158648      127.1042223752
H               170.5958729663       54.2456822165      125.3407838460
H               171.4607188941       56.3399895859      126.2597859610
H               170.1825646583       56.6291338092      125.2107250433
H               169.9462726934       56.7068033474      126.8750451729
N               165.9049264295       56.8934739686      122.9663413125
C               164.5421376750       57.3356138331      123.1901693874
C               163.6498388591       57.1377053567      121.9598904032
O               162.5088530335       56.7112921786      122.0598109473
C               164.5316658188       58.8059047722      123.5917785940
H               166.6381630035       57.5987190836      122.9524087100
H               164.0996682509       56.7133687211      123.9785378108
H               163.5099795335       59.1248412256      123.7770209590
H               165.1161084142       58.9471703139      124.4956259523
H               164.9454539984       59.4094333196      122.7868498479
N               164.2440872870       55.4668114662      118.5526511505
C               165.1710340611       54.6618378022      117.7748289921
C               164.9432076819       54.7529741328      116.2728274780
O               165.8805202789       54.8096119202      115.4825704135
C               164.9578151902       53.2321736672      118.2835338078
C               163.5315452892       53.2462849590      118.8238123988
C               163.4003086263       54.6481707913      119.4090017024
H               166.1983736014       54.9958467497      117.9552122014
H               165.1130238847       52.5007904624      117.4933167267
H               165.6735946653       53.0461553961      119.0838973071
H               162.8119260328       53.1139208038      118.0155306172
H               163.3692020494       52.4801383613      119.5767433156
H               162.3667482098       54.9972368756      119.3894935107
H               163.7755325873       54.6802264666      120.4381009842
H               177.5407255580       63.6963935708      115.4505029629
H               180.2249641138       59.6607852230      114.2241694096
H               174.8819317431       56.5250688187      110.3682183559
H               173.3776422413       50.8789236693      110.0979834068
H               172.2203910899       64.9624135688      117.0100455631
H               163.9979441937       57.3590254000      121.0489347981
H               164.7034537554       56.0718001891      119.0353219420
H               164.0121215461       54.7678932681      115.9083332707
