 471 
 
N                19.6678790553       33.7609730711       20.4121132333
C                20.9203183610       33.9416872276       19.7321306436
C                21.3907622975       35.2055822730       19.0489905281
O                22.4730032569       35.7011120388       19.3215977001
C                21.1157121242       32.8633138546       18.7341725411
C                22.4111089040       32.1461635825       18.9588408914
C                22.6031299556       31.0409508284       17.9919476318
C                23.5452373749       33.1004780331       18.9316493015
H                19.1433262343       33.0759498364       20.0586016044
H                21.5036655710       33.9817139771       20.5765107550
H                20.3217575995       32.2148211425       18.7562924440
H                21.0903589216       33.2526492261       17.7862841460
H                22.3760376359       31.7399474361       19.9032057419
H                23.4743435325       30.5466066003       18.1578627392
H                21.8501934679       30.3617322940       18.0478792974
H                22.6259627002       31.4026301567       17.0431306135
H                24.4288382715       32.6355308826       19.1146406441
H                23.6100304674       33.5454586506       18.0210734243
H                23.4357062257       33.8348259550       19.6253663796
N                20.6158656886       35.7226599428       18.1319209142
C                20.9348075252       36.9219396883       17.4262870606
C                21.0172234955       38.0102265317       18.4829707666
O                21.8064948036       38.9246801162       18.4391424980
C                19.8731445810       37.2695892527       16.4007453439
C                18.8161530666       38.1395518296       17.0042581607
C                19.1904306078       36.0547930807       15.9240181770
C                17.8162190171       38.6631267206       16.0840945133
H                19.7896694227       35.3601319078       17.9047969977
H                21.8262598179       36.8138083293       16.9224796892
H                20.3427558980       37.7594512306       15.6265031319
H                18.3500609334       37.5976159746       17.7397326196
H                19.2587082359       38.9161183731       17.5035774017
H                18.4722155323       36.2757548650       15.2407123111
H                19.8353528754       35.3982690271       15.4972592370
H                18.7330896096       35.5813739571       16.6991093759
H                17.1193043438       39.2294904385       16.5626558041
H                18.2510026069       39.2447427764       15.3737207798
H                17.3271511739       37.9077964735       15.6127012210
N                24.5358682240       38.5946915854       19.9065758049
C                25.4136261923       39.3193879764       19.0313715150
C                25.2706325551       40.8417493050       18.9893782319
O                26.2338384836       41.5805975163       18.9278859786
C                25.2756694972       38.7403559735       17.6600850717
S                25.5006711700       36.9671969543       17.5953069678
H                23.9846173416       38.0042344699       19.4411213434
H                26.3522636589       39.2118332580       19.4360579627
H                24.3502342006       38.9774950744       17.2999708581
H                25.9327204187       39.1894096354       17.0237575519
H                25.3414986644       36.5982705677       16.4093425200
N                24.0335816602       41.2890839407       19.0201889591
C                23.6753492784       42.6655968180       19.0122420299
C                24.1492410753       43.3365666735       20.2763101082
O                24.4617645304       44.4996802842       20.2903061019
C                22.1929812435       42.9265035132       18.8927219323
O                21.6375202999       41.9892238025       18.0037151665
C                21.9181442645       44.3244226293       18.4724745007
H                23.2968455743       40.7210409076       19.0605081013
H                24.1318015170       43.0676479999       18.1848813980
H                21.7864067039       42.7888234142       19.8280141819
H                20.7467956818       42.1307848574       17.9601144419
H                20.9193374710       44.5039654141       18.4179294506
H                22.3187074732       44.9980710553       19.1190149877
H                22.3153752703       44.5011741716       17.5546366886
N                29.3092933924       31.9531829269       24.3232838039
C                29.0038829319       31.8285943914       22.9395994030
C                28.8726238939       30.3950083287       22.5282490202
O                28.3577603960       30.0768700113       21.4801468341
C                29.9720197936       32.5226385146       22.0278861272
C                29.3560044099       33.3522825122       20.9700121346
C                28.5904440088       32.7845868504       19.9835632158
C                29.4519129641       34.7213744482       20.9730064915
C                27.9588558374       33.5461428479       19.0770433401
C                28.8227384188       35.4771001584       20.0651068367
C                28.0740426781       34.8867904846       19.1178080885
H                30.2174590928       31.9251994344       24.5252993163
H                28.0937163742       32.2884561869       22.8176745068
H                30.5941498270       33.1040034529       22.5907558078
H                30.5811104751       31.8236419226       21.6014589932
H                28.5145977459       31.7781792080       19.9634277097
H                30.0142677795       35.1562575048       21.6868626826
H                27.3951660200       33.0975959417       18.3629577651
H                28.9173713662       36.4857697272       20.1042783765
H                27.5957337838       35.4611062071       18.4318173784
N                18.2061850498       27.3622493494       16.0333335457
C                19.2672401303       27.3859308114       15.0797473208
C                20.2221980592       26.1920324295       15.0709643615
O                21.3430404294       26.3292699451       15.5290037272
C                20.0624622046       28.6695350762       15.1873397833
C                19.4168118766       29.7780825235       14.4761940450
C                20.2369320730       29.0214669884       16.6009956362
H                18.4258176324       27.7551520942       16.8467269018
H                18.7582591481       27.3279897822       14.1910769989
H                20.9848157017       28.5028959501       14.7639543003
H                19.9609547752       30.6308943115       14.5497550195
H                19.2987621834       29.5694992668       13.4897135346
H                18.4999315451       29.9601412371       14.8709004470
H                20.7840707680       29.8689855881       16.7041919291
H                19.3337228890       29.1835759360       17.0348329149
H                20.7058900824       28.2817353983       17.1125972345
N                24.2530526432       23.1201707074       10.7545811388
C                23.5393116379       23.3847454384        9.5525377959
C                24.3976853158       23.9232670121        8.4359721303
O                24.4575171744       25.1211313530        8.2621121272
C                22.4116265054       24.3297255636        9.8067178611
C                21.7799981471       24.8937867123        8.5629742623
O                21.8471701850       26.0862331889        8.3315057096
N                21.2271402435       24.0693207353        7.8255032938
H                23.9723508483       23.6551392375       11.4631033653
H                23.2049174584       22.4719967929        9.2279128091
H                21.6921900922       23.8736234769       10.3704632151
H                22.7497641445       25.0974730651       10.3945470143
H                20.8099753174       24.2998823112        7.0067946831
H                21.1690922619       23.1400594383        8.0031268873
N                25.8983348711       25.7228355950        6.0880197807
C                26.3692101694       27.0790263520        5.9880034172
C                26.8393402261       27.7069778858        7.2879435127
O                27.8914697467       28.3200045690        7.3606658046
C                25.3242926727       28.0086543404        5.3594506081
C                24.5075188539       27.2638632620        4.3723075907
C                24.4752868460       28.6609478323        6.4001955226
H                25.0160796598       25.6310775847        5.8095247592
H                27.2052151210       26.9818010050        5.3973850035
H                25.8160646551       28.7677326049        4.8683966285
H                23.8074735057       27.8611393974        3.9426576927
H                25.0809140827       26.8739793933        3.6299550483
H                24.0208509652       26.4977827748        4.8256463083
H                23.7881207862       29.2858158197        5.9875231887
H                23.9728505873       27.9616735813        6.9390550183
H                25.0318387018       29.2117943060        7.0499757597
N                26.0377939533       27.5793146938        8.3306781055
C                26.2900202008       28.1355231786        9.6237931363
C                27.2427541422       27.3351457767       10.4957871104
O                27.7469081685       27.8293317795       11.4894665888
C                24.9980622770       28.4288618587       10.3454203904
C                24.8983775576       28.9314174087       11.7605780635
C                23.5424242230       29.4505739171       12.0202490829
C                25.2184191012       27.8651137755       12.7296956140
H                25.2370904800       27.1050427753        8.2837740334
H                26.7977669069       29.0123800304        9.4520791871
H                24.4683891190       29.0793279052        9.7608936773
H                24.4594619518       27.5615930647       10.3201021011
H                25.5822251711       29.6894164263       11.8735746822
H                23.4585181906       29.8097886638       12.9656282932
H                23.2980071660       30.1992799697       11.3790242805
H                22.8564957846       28.7100578508       11.9076339907
H                25.1784144559       28.2068017312       13.6846956694
H                24.5573318948       27.1002320854       12.6426897787
H                26.1479292736       27.4909173640       12.5730669942
N                30.9543269173       28.4612546386       10.3877282501
C                30.8510972160       29.8458085464       10.6326082330
C                30.8166693087       30.1287509930       12.1159175554
O                31.2341198886       31.1832477901       12.5594761692
C                29.6769384427       30.4535368321        9.9578935095
C                30.0471144979       31.7048875079        9.2611651127
C                28.8724831401       32.3038309524        8.6079939099
C                30.6879889831       32.6139625426       10.2244771171
H                30.1380554465       28.0513618455       10.2112477699
H                31.6894399803       30.2933840690       10.2392784956
H                29.2562973578       29.7839438564        9.3081855779
H                28.9401482891       30.6459457463       10.6408671052
H                30.7358115871       31.4971809302        8.5269525204
H                29.1121775582       33.1575841981        8.1121251912
H                28.4500745702       31.6677703591        7.9345698541
H                28.1618223199       32.5364150212        9.2962969701
H                30.9844170167       33.4734280082        9.7795455277
H                30.0371089666       32.8503175873       10.9667381805
H                31.5038658327       32.1882979639       10.6535323298
N                30.3106046400       29.1945940229       12.8965258455
C                30.2340542130       29.2759449771       14.3311497407
C                31.4770732741       28.7620518195       15.0209205617
O                31.6793565455       28.9337191935       16.1986929426
C                29.1544155462       28.4215666910       14.9847449388
C                29.1525252519       28.6160542164       16.4527460342
C                27.8211172050       28.6722853961       14.4180447325
H                29.9677620819       28.3962918234       12.5612069374
H                30.0612211547       30.2791887479       14.4735218708
H                29.3915231500       27.4425358699       14.7775190329
H                28.4593018835       28.0307567006       16.9039077199
H                30.0566873101       28.3960381173       16.8603964748
H                28.9423893451       29.5840745598       16.6760310428
H                27.1193737143       28.0720261047       14.8421756907
H                27.5452923774       29.6346096713       14.5788068327
H                27.8039184100       28.5064959966       13.4159974855
N                34.2083375198       31.6993472155       14.6732082389
C                34.0328212960       32.5458286591       15.8151585759
C                34.8534997427       32.0578082799       16.9939266369
O                35.9774116839       32.4659435900       17.1781935812
C                32.6031398073       32.7073948067       16.2036208158
C                32.3138575266       33.4081543090       17.5031459393
C                33.1740965298       34.5850506648       17.6726076201
C                30.8940317532       33.8012459429       17.5706356009
H                33.4037162560       31.4822699975       14.2577690025
H                34.4091804240       33.4659897075       15.5548138908
H                32.1078222178       33.2089327209       15.4630194567
H                32.1739753764       31.7799033482       16.2184216624
H                32.5281187753       32.7557241063       18.2680046343
H                32.9988217071       35.0461773354       18.5596630453
H                34.1579490390       34.3339188800       17.6417815281
H                32.9977954587       35.2555484077       16.9320162394
H                30.6771368962       34.2675746587       18.4464070979
H                30.6707755388       34.4421928731       16.8145140137
H                30.2784674415       32.9975712089       17.4883483557
N                35.5076116507       40.5521422090       16.2858853026
C                34.6048729946       41.5850044848       15.6965040011
C                34.1785131911       41.2659861527       14.3669795742
O                32.9407305577       41.4068588819       14.1805977009
C                35.4388855802       42.9412625786       15.7737000898
C                34.5154656556       44.1240380804       15.2607882857
C                33.3338648074       44.3800998907       16.1662386782
N                33.4827808698       45.2971711745       17.2508770518
C                34.3337186597       44.7742688595       18.3517026968
N                34.9322691900       43.8513567054       18.3519498847
N                34.2226416553       45.8784252165       19.3480181641
H                36.0572950349       40.6480147236       16.9774781342
H                33.9397174411       41.7173333260       16.4819738882
H                35.6764444877       43.1380463587       16.6791332161
H                36.1989850864       42.8493434730       15.2282392854
H                35.1822993175       44.9288964119       15.2601824942
H                34.3467932012       44.0125487977       14.3513918777
H                32.6248180555       44.7857680634       15.4700010285
H                32.9838911204       43.5104555696       16.3925439742
H                33.0538221256       45.9182083261       17.3394697444
H                34.8665403546       43.3734671357       17.6566160018
H                35.4327296122       43.5198138380       18.8962163077
H                33.9983149177       46.4151195962       19.5379256305
H                34.6832166279       45.6232834859       19.8692970632
N                35.0979273227       40.7875803278       13.6170878857
C                34.4873444943       40.4997982623       12.0454102842
C                33.8887190671       39.3065301970       12.2325465194
O                32.4798293466       39.2262159040       11.5062630921
C                35.9483872172       40.2408089501       11.3409756479
O                35.2740906591       39.7002495665        9.9828868675
H                35.8236496713       40.7656416302       13.6695430153
H                34.1636190844       41.1970541515       11.8589001114
H                36.1769356433       41.0035630787       11.0594710417
H                36.4200266428       39.6262448966       11.7363831548
H                36.0485040609       39.4676988944        9.5880412520
N                34.3427647118       38.1370435238       12.7507888341
C                33.5157873324       36.8468553608       12.6755442525
C                32.3813961623       36.9023976163       13.4700754638
O                31.2302965034       36.2060223127       12.8971033914
C                34.6100980096       35.8440850951       13.3432819451
H                34.9513190367       38.2151479563       13.1210050441
H                33.5859039119       36.6173251711       11.8715419428
H                34.0038597535       34.9328262064       13.2404877010
H                35.3373506426       35.7141329124       12.7749268969
H                34.8151016919       36.0103306426       14.1854876723
N                32.0998202310       37.7812381902       14.4930654963
C                30.6893382377       37.8824540916       14.9856632626
C                29.9225134896       38.6332292661       14.0435793300
O                28.5085478340       38.1850309541       13.9639257259
C                30.9308521905       38.9220464449       16.2526521692
C                31.5417238232       38.1843755787       17.4004747921
C                29.4189321285       39.3228796228       16.6835583300
C                31.9441454997       39.1003732518       18.5392010456
H                32.7036934100       38.2042378303       14.7540518384
H                30.5522057908       37.1461481963       15.4023103841
H                31.2191797978       39.6299000503       15.9813408794
H                31.1274164829       37.5731208268       17.7385215243
H                32.3769555615       37.8071023488       17.0793898595
H                29.5118922027       39.8479010783       17.4389613107
H                28.9611040279       39.7607412745       16.0151816903
H                28.9183859489       38.4903465076       16.9020566976
H                32.4412455844       38.7550987796       19.1931364478
H                32.5187165859       39.8919354001       18.2169455064
H                31.1563119428       39.6067156545       18.8788860508
N                30.3485028634       39.3643954489       13.1247466920
C                29.6438989219       39.9794170646       12.0278730361
C                29.1071645124       38.9683809871       10.9654694109
O                28.0032529459       39.1106997761       10.4729419298
C                30.3571052795       41.2069792083       11.4615102212
C                29.5761469598       41.9821742283       10.4182166088
O                28.4304817599       42.3200587111       10.6732809601
N                30.1542205535       42.2354982141        9.3602106038
H                31.2488704855       39.6059447821       13.1541956260
H                28.7715508500       40.3470651484       12.4217634903
H                30.6130935569       41.8405293451       12.2260026911
H                31.2476552575       40.9161514295       11.0583167062
H                29.7516309476       42.7095541373        8.6432148785
H                31.0431984650       41.9781072172        9.1520574453
N                29.8750590481       37.9442961036       10.6282657907
C                29.5195030391       36.8662412666        9.7235999008
C                28.3637984042       35.9623423791       10.1217170275
O                27.4646239889       35.6756498209        9.3579894342
C                30.6565146582       35.9184631851        9.4986778962
C                31.8004816248       36.4290826463        8.6489964757
O                31.7262111492       37.5468768424        8.1773662829
N                32.7634721790       35.6653441497        8.4835079698
H                30.7402058444       37.8533408408       10.9595616938
H                29.2357285060       37.3963718543        8.8908878701
H                31.0173132306       35.6319137661       10.4136172675
H                30.2960121436       35.0518175923        9.0874298889
H                33.5242234704       35.8925781538        7.9664250214
H                32.8300919215       34.7920473551        8.8451489833
N                28.4671511071       35.4318422871       11.3274011552
C                27.5059302852       34.5497308058       11.9004839183
C                26.2450112927       35.3233837234       12.2425060832
O                25.2115105566       34.7525963366       12.5470694687
C                28.0381964222       33.7169912651       13.0627834777
C                27.2344779769       33.6141260143       14.3311462788
C                27.5961416516       32.4180830112       15.1334199169
C                27.3835370215       34.8593149063       15.1109264763
H                29.1799110985       35.6199965475       11.8961864866
H                27.2476488961       33.8541999239       11.1885935936
H                28.2306666051       32.7687196970       12.7294970896
H                28.9557843618       34.0893322383       13.3160061011
H                26.2469156803       33.5048897441       14.0700005578
H                27.0302364962       32.3508395950       15.9749588057
H                27.4648710331       31.5605845544       14.6049530848
H                28.5697053638       32.4632170227       15.4158472830
H                26.8294990481       34.8353260198       15.9617951435
H                28.3547094953       34.9942258692       15.3759788412
H                27.0934245065       35.6723341839       14.5742760308
N                26.3254970441       36.6454207661       12.2181085630
C                25.2281884222       37.4941519171       12.5758248111
C                24.3929800317       37.7602787327       11.3478534612
O                23.1749333740       37.7524956709       11.3982437165
C                25.5972100297       38.8251947109       13.2345936453
C                24.3729293294       39.6477378657       13.5188521598
C                26.5229401450       39.5848771991       12.4008052282
C                24.6181322244       40.9701978888       14.0679920058
H                27.0902313173       37.1101470477       11.9597917842
H                24.6846077306       36.9708605918       13.2761213193
H                26.0778810536       38.6232282608       14.1208497855
H                23.8408759798       39.7379711319       12.6483702876
H                23.7499332489       39.1315081969       14.1460391890
H                26.7883778271       40.4638633179       12.8347676319
H                27.3739808876       39.0626449709       12.2252448552
H                26.1005817990       39.7987103265       11.5026116211
H                23.7535539820       41.4836176394       14.2232288482
H                25.1034869684       40.9054442889       14.9579597383
H                25.1934398482       41.5209818096       13.4377829028
N                25.0375233660       37.9562995236       10.2164647951
C                24.4214425046       38.2375782861        8.9586093945
C                23.7809795316       36.9582857538        8.4129352784
O                23.1959447644       36.9326378218        7.3495056170
C                25.3657921897       38.9347427217        7.9410743113
C                24.6971657424       39.1616138862        6.6348823900
C                25.9246878283       40.1967103832        8.4885963279
H                25.9648291122       37.8996175647       10.1619584753
H                23.6733402434       38.9243195344        9.1162970595
H                26.1543328139       38.2966587689        7.7765798869
H                25.3262405022       39.5917267603        5.9637376568
H                24.3649790489       38.2898060079        6.2326360625
H                23.8968939597       39.7747781316        6.7500495817
H                26.5652035448       40.6361134133        7.8322868815
H                25.1812142405       40.8583428513        8.6848361997
H                26.4361489893       40.0358289463        9.3517154239
N                23.9344395240       35.8735885944        9.1612100152
C                23.5472792660       34.5411154488        8.8190576518
C                22.2123218748       34.2399941818        9.4492990126
O                21.2645344562       33.8204282781        8.8174717559
C                24.5460258173       33.5098992599        9.2511268432
C                24.6742397273       32.3809084047        8.3404810504
C                25.1192105447       32.8350659992        6.9833533650
O                26.3335587199       33.0458694001        6.8254138222
O                24.2451197479       33.0189662696        6.1130631383
H                24.3257887970       35.9136386640       10.0048508730
H                23.4777312376       34.4840540647        7.7941783540
H                25.4624423930       33.9499189434        9.3656661150
H                24.2973166333       33.1776614928       10.1858856808
H                25.3314709472       31.6882461582        8.7039419072
H                23.7830415834       31.8905066127        8.2687267607
N                22.1413299988       34.4608473386       10.7500981463
C                20.9673995706       34.2770971139       11.5341372238
C                19.8926476777       35.2481223980       11.0599496585
O                18.7160600397       34.9405355051       11.0323140392
C                21.2794970800       34.4123292199       13.0008675422
C                22.2809158624       33.4280194484       13.5516171209
C                22.8130792588       33.8087879620       14.8950498517
C                21.6509062472       32.0920837584       13.5585907411
H                22.8674639168       34.7688620220       11.2437064422
H                20.6080349844       33.3237045533       11.3908609116
H                21.6021583506       35.3659952215       13.1742064939
H                20.4153807797       34.3301105843       13.5432545530
H                23.1016917849       33.4200390590       12.9330391240
H                23.5009487778       33.1370467959       15.2264305797
H                23.2616253106       34.7210283036       14.8761305032
H                22.0628572169       33.8451176837       15.5768451104
H                22.2888517450       31.3774231156       13.8949057930
H                20.8361583661       32.0920435809       14.1648103193
H                21.3432022793       31.8180322959       12.6290711978
N                20.3015031404       36.4446766126       10.6772179600
C                19.4148410651       37.4546058180       10.1766261554
C                18.7514392775       36.9914318638        8.8905985069
O                17.5460477709       36.9053935274        8.7869708097
C                20.0706194115       38.8176191927        9.9463360263
C                19.3115525819       39.6623127370        8.9646804927
C                21.4213160845       38.6586752320        9.4269287142
C                20.0389482737       40.8484543584        8.4758990332
H                21.1941376032       36.7077237972       10.6992156970
H                18.6904755110       37.5680948182       10.8982329721
H                20.1055313092       39.2974536982       10.8551265670
H                19.0477733076       39.0691629642        8.1714728890
H                18.4171064532       39.9469358774        9.3731596392
H                21.8694270934       39.5578802079        9.2802383918
H                22.0034879578       38.1266910178       10.0631535510
H                21.4002371728       38.1723725996        8.5380889200
H                19.4946785210       41.3813667889        7.8012591878
H                20.2706265393       41.4735356453        9.2436184113
H                20.9084656098       40.5813943912        8.0219027973
N                19.5524168761       36.6760786583        7.8768207260
C                19.0624621644       36.1934978919        6.6242593406
C                18.1380992226       35.0257003763        6.9219603214
O                17.5023727074       34.4736440760        6.0484380390
C                20.1471305770       35.7754862464        5.6571425312
C                19.7437640054       35.5437783625        4.2367987974
C                20.8303085694       35.0909500891        3.3034367347
N                22.0054362083       35.9210679793        3.2910043434
C                22.0337899616       37.2682508589        3.2527603344
N                21.0080467724       37.8716669620        3.2055997235
N                23.1189312743       37.8409354122        3.2513358330
H                20.4799748996       36.7249071935        7.9296133900
H                18.5467544082       36.9471494794        6.1498376192
H                20.8963757308       36.4723630698        5.6745339645
H                20.5823203015       34.9232775166        6.0180481085
H                18.9695832993       34.8718239973        4.2262134695
H                19.3287402055       36.4022962094        3.8718058126
H                21.0852102981       34.1258474753        3.5371636816
H                20.4667918506       35.0272183385        2.3466960449
H                22.8274637940       35.4773400295        3.3288631538
H                20.1165259936       37.4914675954        3.1938748120
H                20.9262825982       38.8251901840        3.1776156876
H                23.9872157103       37.4287001974        3.2799488759
H                23.2196209589       38.7905034995        3.2269907126
N                18.1027718942       34.6273594787        8.1860094505
C                17.3173416897       33.5600401939        8.6681893915
C                17.6080599888       32.1748347651        8.1408960397
O                16.7747882210       31.5626616832        7.5108884368
H                18.6047783227       35.0521223333        8.8469432485
H                17.3653501335       33.5333305441        9.6909966298
H                16.3349850865       33.7664393816        8.4646833025
N                18.8108655960       31.6673120209        8.4022987516
C                19.2473202858       30.3783366298        7.9389583296
C                19.9131410484       29.4931527117        8.9828610464
O                20.9503841125       29.7994424217        9.5089406119
C                20.1829997061       30.4545401768        6.7305601954
O                20.6290632141       29.1546872027        6.4098495979
C                21.3078303039       31.3569761824        6.9944814492
H                19.4544747119       32.1247746622        8.8949910801
H                18.3618995957       29.9332500351        7.6753160590
H                19.6505445707       30.8427213725        5.9401627349
H                21.1791298651       29.2080081951        5.6957187094
H                21.9279943160       31.4235694637        6.1918576144
H                20.9922489835       32.2952877594        7.2205070655
H                21.8535359744       31.0155289403        7.7804798911
N                19.2827522977       28.3576650207        9.2603157279
C                19.7194365750       27.4396700922       10.2239014733
C                18.6517747058       27.1469751848       11.2362603607
O                18.9090409012       26.6718083022       12.3161779405
H                18.4944210990       28.1015896724        8.8352164314
H                20.0434006632       26.5691092983        9.7884171506
H                20.5567745087       27.8050204648       10.6928741724
H                19.8212345607       33.5609979891       21.2761109507
H                20.3972141195       37.9934863133       19.2673865611
H                25.0235760522       38.1180427640       20.4938976717
H                24.2093490125       42.8145841132       21.1271457225
H                28.9991400520       32.7405322064       24.6296920569
H                29.2151842519       29.6700066453       23.1257646770
H                17.4964744181       27.8071984650       15.7041966384
H                19.9235040347       25.3156152396       14.6932411970
H                24.1320039508       22.2607802604       10.9928987287
H                24.9085237928       23.2941731799        7.8500668473
H                26.4082004445       25.1890461675        5.5731353819
H                27.4638697671       26.3894735795       10.2574344808
H                31.4843653703       28.3210981724        9.6739948241
H                32.1670228015       28.2601127727       14.4993586356
H                34.7266314468       32.1163165249       14.0669838578
H                34.4667081837       31.3905046545       17.6303998582
H                35.0179643053       39.8536071931       16.5727551491
H                17.6946931622       27.3456477379       11.0252529309
