 85 
 
N                10.3697677382       16.9851838189       18.8803985237
C                10.8643424896       18.3116616236       18.6239413740
C                 9.8617826069       19.3769476378       19.0479207989
O                 8.7151805777       19.2848943141       18.6188234767
C                11.1963664674       18.5039460029       17.1811947049
C                11.9497679737       19.7335785412       16.8322272957
C                13.1875911607       20.0044974809       17.3577312238
C                11.5082988111       20.6215621843       15.8895495302
C                13.9121497901       21.0475822948       16.9649393194
C                12.2390325153       21.6621932425       15.5000441754
C                13.4464774651       21.8829381692       16.0300004165
H                10.0022146711       16.5733302615       18.1314995423
H                11.7114179462       18.4277161425       19.1883528824
H                11.7189027200       17.6917778591       16.8455531681
H                10.3249478107       18.4857665673       16.6480052257
H                13.5349469547       19.3741276014       18.0630029896
H                10.5968215873       20.4538317779       15.4975933910
H                14.8250391513       21.2104143056       17.3731460127
H                11.8788852322       22.2942704361       14.7940610838
H                14.0018375411       22.6749835326       15.7292398980
N                10.2523661807       20.3765983275       19.8558640283
C                 9.3225190782       21.4318170425       20.2652560528
C                 8.2556014708       21.7026354750       19.2136402226
O                 8.5086748236       21.5922408699       18.0393357658
C                10.2275996441       22.5771744198       20.5601498946
C                11.3832836558       21.9216333797       21.1521045109
C                11.5933817343       20.7451670745       20.2816909766
H                 8.7782375313       21.1721407121       21.0988107955
H                10.4725807405       23.0906838578       19.7067251435
H                 9.8008438189       23.2851933003       21.1655592041
H                12.1989253958       22.5354974845       21.2096303988
H                11.2011548171       21.6543639549       22.1255335052
H                12.2008023440       20.9604260821       19.4815560450
H                12.0717215330       19.9712697701       20.7562036471
N                 7.0545203003       22.0890620849       19.6421200316
C                 5.9196504741       22.3099412987       18.7856309408
C                 5.6550148562       23.6592030240       18.1126100137
O                 4.9081396218       23.7157177202       17.1559295315
C                 4.6596258539       21.8438967414       19.4583231868
C                 4.4690997827       22.4119694763       20.8544974600
O                 5.3930557076       22.2328358345       21.6777004962
O                 3.4217780259       23.0288660452       21.1087495026
H                 6.8613138653       22.2308334475       20.5426335171
H                 6.2088131140       21.7596608621       17.9666377987
H                 3.8447425167       22.0866287022       18.8914808563
H                 4.6437918905       20.8247159077       19.5148683639
N                 6.2429451054       24.7414691127       18.5987105010
C                 6.0680298517       26.0708016275       18.0705344943
C                 7.3200296512       26.6957195318       17.4534282043
O                 7.4811977859       26.7721403772       16.2622727761
C                 5.4551003410       27.0105295093       19.0759611665
O                 4.0686124301       26.9613027158       19.0968160610
H                 6.8130752514       24.7079769017       19.3340202490
H                 5.4120836898       25.9297158181       17.2921950010
H                 5.8350466074       26.7912497090       20.0018500141
H                 5.7739008934       27.9664587434       18.8880439501
H                 3.7610582309       27.5351621739       19.7225216749
N                 9.1343996055       22.4813896435       13.7687093617
C                 9.0159946522       21.0682822323       13.9539360767
C                 8.7617170191       20.2980199877       12.6587051837
O                 9.2810630479       19.2103752937       12.4590423753
C                 8.1369286463       20.6579465780       15.0998959215
C                 8.0249219729       19.2030079184       15.3632588764
C                 6.7879880427       18.6102119214       14.8135913752
N                 5.6361700042       19.0607776778       15.5212721483
C                 5.4332112605       18.9061719740       16.8433454748
N                 6.2424626200       18.3181175007       17.4740958266
N                 4.4196247442       19.3563281540       17.3460115182
H                 8.5870772388       22.9762145300       14.3365201821
H                 9.9512500711       20.7574448146       14.2288755440
H                 8.4488548302       21.1347074371       15.9517676306
H                 7.1989516015       21.0220324816       14.9310415742
H                 8.8515890807       18.7286388884       14.9893532242
H                 8.0666888296       19.0220303347       16.3701259330
H                 6.7191071915       18.8328616946       13.8155795851
H                 6.8264532811       17.5869301901       14.8397839477
H                 4.9868993747       19.5180291779       15.0288469734
H                 7.0753791233       17.9427265118       17.1441197024
H                 6.1998922595       18.1590193966       18.4191695617
H                 3.7212359314       19.8471564948       16.9000768348
H                 4.2087992997       19.2843345941       18.2754864824
H                11.0439999919       16.4638626786       19.1695959248
H                 8.0406586080       27.0588347094       18.0440560688
H                 9.9838778484       22.7346595555       13.9244047904
H                 8.1616829272       20.6831265778       11.9575261747
