372
Properties=species:S:1:pos:R:3 pbc="F F F"
N      36.07300000      31.10500000      48.46700000 
C      34.70000000      30.72500000      48.63100000 
C      34.62800000      29.25700000      48.34500000 
O      35.45500000      28.70900000      47.60000000 
C      33.72300000      31.44400000      47.68200000 
C      34.38200000      32.06100000      46.46100000 
C      33.40500000      32.16000000      45.30000000 
N      33.30400000      33.50200000      44.75700000 
C      32.77800000      33.73400000      43.57400000 
N      32.27400000      32.75200000      42.84100000 
N      32.71000000      34.96900000      43.11300000 
H      36.59500000      30.57200000      47.81200000 
H      34.41000000      30.90800000      49.65100000 
H      32.98500000      30.72400000      47.36200000 
H      33.18100000      32.19500000      48.22700000 
H      34.77100000      33.03500000      46.71400000 
H      35.22600000      31.47000000      46.14700000 
H      33.76200000      31.53000000      44.51500000 
H      32.41900000      31.83800000      45.59700000 
H      33.69400000      34.26100000      45.26200000 
H      32.38400000      31.80400000      43.09200000 
H      31.96800000      32.93600000      41.91400000 
H      33.03500000      35.72900000      43.65800000 
H      32.34800000      35.16000000      42.21100000 
N      33.61500000      28.59200000      48.89500000 
C      33.41300000      27.19100000      48.61600000 
C      31.99300000      26.83000000      48.94100000 
O      31.21900000      26.42500000      48.07100000 
C      34.40100000      26.35800000      49.39300000 
O      34.07700000      25.00000000      49.12000000 
H      32.97700000      29.06900000      49.49200000 
H      33.55400000      27.01400000      47.56800000 
H      35.39200000      26.59800000      49.06200000 
H      34.32900000      26.56400000      50.44700000 
H      34.78500000      24.39500000      49.31100000 
N      40.88400000      30.15700000      38.50000000 
C      39.65700000      29.79600000      37.84500000 
C      39.11900000      30.92000000      36.99800000 
O      37.90200000      30.99600000      36.74600000 
C      38.58000000      29.32700000      38.81700000 
C      38.77300000      27.91500000      39.24500000 
O      38.25900000      26.98500000      38.59100000 
N      39.49600000      27.68900000      40.33100000 
H      41.71500000      29.68800000      38.21600000 
H      39.90200000      29.00100000      37.15700000 
H      38.56700000      29.99300000      39.65400000 
H      37.63700000      29.37700000      38.31000000 
H      39.65300000      26.75400000      40.63000000 
H      39.88000000      28.42100000      40.87600000 
N      23.22400000      17.40600000      44.25000000 
C      23.81300000      17.67200000      42.96000000 
C      23.40600000      16.59300000      41.98500000 
O      23.20700000      15.42200000      42.36800000 
C      25.33500000      17.72700000      43.12700000 
C      26.08900000      18.42100000      42.00400000 
C      27.41800000      18.97900000      42.49600000 
C      28.30800000      17.90600000      43.07800000 
N      29.59600000      18.51400000      43.53000000 
H      23.27300000      16.46100000      44.57400000 
H      23.46100000      18.62200000      42.60500000 
H      25.50700000      18.27100000      44.04200000 
H      25.70000000      16.72300000      43.28700000 
H      26.25400000      17.74900000      41.17500000 
H      25.49300000      19.24300000      41.63300000 
H      27.93600000      19.46600000      41.68100000 
H      27.23200000      19.72800000      43.25000000 
H      27.86700000      17.44300000      43.94100000 
H      28.55100000      17.15200000      42.35500000 
H      30.18900000      17.82500000      43.96600000 
H      30.10300000      18.90800000      42.75600000 
H      29.43300000      19.24700000      44.20000000 
N      24.19200000      15.40900000      37.62700000 
C      24.82000000      15.66400000      36.35300000 
C      24.23900000      14.73900000      35.32200000 
O      23.96800000      13.55600000      35.60000000 
C      26.33600000      15.51600000      36.50000000 
C      26.85700000      16.73100000      37.27100000 
C      27.03600000      15.37500000      35.16300000 
C      27.94100000      16.39500000      38.28000000 
H      24.18700000      14.46800000      37.96500000 
H      24.59400000      16.67200000      36.07000000 
H      26.50300000      14.62300000      37.08400000 
H      27.22700000      17.45300000      36.55400000 
H      26.04500000      17.20800000      37.79100000 
H      28.10700000      15.40600000      35.30800000 
H      26.78900000      14.45000000      34.66300000 
H      26.76200000      16.19400000      34.51500000 
H      28.32200000      17.28900000      38.75000000 
H      27.53900000      15.75500000      39.05600000 
H      28.77000000      15.87700000      37.81500000 
N      33.27400000      18.62000000      29.57500000 
C      32.49500000      19.39200000      30.51500000 
C      31.25600000      18.60000000      30.83700000 
O      30.90500000      17.63800000      30.12900000 
C      32.14600000      20.77500000      29.94500000 
C      31.35000000      20.63100000      28.66900000 
C      31.42900000      21.67700000      30.93200000 
H      32.79800000      17.93100000      29.03300000 
H      33.07200000      19.53000000      31.41600000 
H      33.10000000      21.21700000      29.71200000 
H      31.06700000      21.60500000      28.30400000 
H      31.93100000      20.13100000      27.91300000 
H      30.44300000      20.06700000      28.83900000 
H      31.45500000      22.69000000      30.56700000 
H      30.39300000      21.39300000      31.03400000 
H      31.88700000      21.66600000      31.90800000 
N      30.54200000      18.99700000      31.88400000 
C      29.29500000      18.37100000      32.23700000 
C      28.34500000      19.41800000      32.75500000 
O      28.76100000      20.42700000      33.34600000 
C      29.50000000      17.28700000      33.27600000 
H      30.85400000      19.75400000      32.44600000 
H      28.87800000      17.93500000      31.35100000 
H      28.57500000      16.78500000      33.48400000 
H      30.21000000      16.56800000      32.89300000 
H      29.89100000      17.71400000      34.18800000 
N      27.05700000      19.17100000      32.53400000 
C      26.00800000      20.04900000      32.97800000 
C      25.03100000      19.31100000      33.85400000 
O      24.74400000      18.11800000      33.64500000 
C      25.11800000      20.56300000      31.85300000 
C      25.68200000      21.45900000      30.80400000 
C      27.02400000      21.68200000      30.56200000 
C      24.75100000      22.08400000      29.97700000 
C      27.42900000      22.49600000      29.51100000 
C      25.13800000      22.89100000      28.93800000 
C      26.48800000      23.09200000      28.70700000 
O      26.82500000      23.90200000      27.64700000 
H      26.80300000      18.32700000      32.06400000 
H      26.44500000      20.86300000      33.51900000 
H      24.69300000      19.69500000      31.37800000 
H      24.29900000      21.08300000      32.32200000 
H      27.76800000      21.23900000      31.17900000 
H      23.70800000      21.92300000      30.16800000 
H      28.47200000      22.65900000      29.32500000 
H      24.41900000      23.36800000      28.30500000 
H      27.75200000      24.10300000      27.57800000 
N      24.38700000      20.04200000      34.74000000 
C      23.27900000      19.50800000      35.47700000 
C      22.72300000      20.55000000      36.38500000 
O      22.39600000      21.66500000      35.93700000 
H      24.58500000      21.00600000      34.79800000 
H      22.49200000      19.24300000      34.79100000 
H      23.56700000      18.64000000      36.02600000 
N      22.56900000      20.20200000      37.65100000 
C      21.93700000      21.07600000      38.58500000 
C      22.45600000      20.78400000      39.95400000 
O      22.97500000      19.69400000      40.25000000 
C      20.42100000      20.96300000      38.52800000 
C      19.86200000      19.55500000      38.59100000 
C      18.47900000      19.59600000      39.21800000 
N      17.61900000      18.52700000      38.73000000 
C      17.07100000      17.53200000      39.40700000 
N      16.17900000      16.75700000      38.81000000 
N      17.39100000      17.29800000      40.66700000 
H      22.90100000      19.31700000      37.97400000 
H      22.20400000      22.09100000      38.34100000 
H      20.00800000      21.55100000      39.33100000 
H      20.10200000      21.40400000      37.60100000 
H      19.77600000      19.19300000      37.57800000 
H      20.50700000      18.87300000      39.12700000 
H      18.55900000      19.55700000      40.28900000 
H      17.99800000      20.52800000      38.97500000 
H      17.37600000      18.59500000      37.77200000 
H      15.90400000      16.88700000      37.86600000 
H      15.78100000      15.98300000      39.28800000 
H      18.06600000      17.84000000      41.14700000 
H      16.89700000      16.61600000      41.19500000 
N      22.31300000      21.76800000      40.82100000 
C      22.81300000      21.69800000      42.16500000 
C      21.78400000      22.38300000      43.01200000 
O      21.25100000      23.43700000      42.60300000 
C      24.17300000      22.37400000      42.20200000 
C      25.01700000      22.05100000      43.40800000 
C      26.39800000      22.61000000      43.32100000 
O      27.32300000      22.11800000      44.00500000 
N      26.61600000      23.65900000      42.54300000 
H      21.93500000      22.63800000      40.52700000 
H      22.89900000      20.66600000      42.44400000 
H      24.69300000      22.05300000      41.31500000 
H      24.00300000      23.43400000      42.11500000 
H      24.57800000      22.43400000      44.31800000 
H      25.11300000      20.98600000      43.53300000 
H      25.90700000      24.08900000      41.99900000 
H      27.52300000      24.06300000      42.51600000 
N      21.67200000      26.01600000      41.32100000 
C      22.47200000      26.29700000      40.15900000 
C      21.78900000      25.77200000      38.92600000 
O      22.09900000      26.16500000      37.80100000 
C      23.87800000      25.73100000      40.33500000 
C      24.90700000      26.21600000      39.32100000 
C      24.99800000      27.73200000      39.28900000 
C      26.26800000      25.63700000      39.68000000 
H      21.86700000      25.22000000      41.88900000 
H      22.52500000      27.36000000      40.03900000 
H      24.20900000      26.03000000      41.32000000 
H      23.83400000      24.65400000      40.32100000 
H      24.62700000      25.85900000      38.34300000 
H      25.85600000      28.04500000      38.71000000 
H      24.12100000      28.18200000      38.85000000 
H      25.11400000      28.11800000      40.29400000 
H      26.99900000      25.88100000      38.92100000 
H      26.61100000      26.05300000      40.62200000 
H      26.23000000      24.56200000      39.77500000 
N      22.48100000      23.30000000      33.29300000 
C      23.30000000      24.46700000      33.53800000 
C      24.71600000      23.99000000      33.68700000 
O      24.93800000      22.88300000      34.22400000 
C      22.81800000      25.15700000      34.83600000 
C      22.72000000      26.68500000      34.84500000 
C      23.95000000      27.34400000      35.45400000 
C      22.37400000      27.27300000      33.48500000 
H      22.59500000      22.54400000      33.93700000 
H      23.19400000      25.11900000      32.69700000 
H      21.83400000      24.76100000      35.01300000 
H      23.42700000      24.82900000      35.66500000 
H      21.90000000      26.90700000      35.51200000 
H      23.89300000      28.42000000      35.35800000 
H      24.00800000      27.09900000      36.50100000 
H      24.86000000      27.01100000      34.98000000 
H      22.02300000      28.29000000      33.59600000 
H      23.23800000      27.30000000      32.83300000 
H      21.60400000      26.70000000      32.99400000 
N      25.73000000      24.74600000      33.30000000 
C      27.08100000      24.27500000      33.54300000 
C      27.29100000      23.93200000      34.98400000 
O      26.87100000      24.67400000      35.88400000 
C      27.93000000      25.48100000      33.15400000 
C      27.12300000      26.10500000      32.03200000 
C      25.70000000      25.99800000      32.54200000 
H      27.29100000      23.42300000      32.92000000 
H      27.97900000      26.16000000      33.99300000 
H      28.93200000      25.20100000      32.87600000 
H      27.41000000      27.11800000      31.81600000 
H      27.23400000      25.52700000      31.13200000 
H      25.46500000      26.82500000      33.18200000 
H      24.97300000      25.95000000      31.75100000 
N      28.03800000      22.85300000      35.21900000 
C      28.48200000      22.51600000      36.55300000 
C      29.99500000      22.53100000      36.52200000 
O      30.60900000      23.60000000      36.65700000 
C      27.85500000      21.24400000      37.10900000 
C      26.34100000      21.27700000      36.95400000 
C      28.26100000      21.05500000      38.56000000 
C      25.61500000      22.24600000      37.87300000 
H      28.25300000      22.21900000      34.47500000 
H      28.20100000      23.33900000      37.18200000 
H      28.20000000      20.39900000      36.52500000 
H      26.12500000      21.53900000      35.94000000 
H      25.96200000      20.27800000      37.11800000 
H      27.77500000      20.18200000      38.97100000 
H      29.32600000      20.93700000      38.67100000 
H      27.95300000      21.91200000      39.14200000 
H      24.58700000      22.34900000      37.55900000 
H      25.61700000      21.90500000      38.90000000 
H      26.06600000      23.22600000      37.83600000 
N      30.64400000      21.38600000      36.32100000 
C      32.07700000      21.32000000      36.37300000 
C      32.73500000      21.82800000      35.11600000 
O      32.12500000      21.92800000      34.04800000 
C      32.53800000      19.89400000      36.64100000 
O      33.07300000      19.87400000      37.96600000 
H      30.14000000      20.55700000      36.12400000 
H      32.41700000      21.93300000      37.19000000 
H      31.70400000      19.21400000      36.55800000 
H      33.29500000      19.59700000      35.93300000 
H      33.39500000      19.01200000      38.21200000 
N      34.03400000      22.09600000      35.26000000 
C      34.92600000      22.47600000      34.19300000 
C      36.22700000      21.72200000      34.35900000 
O      36.59700000      21.32100000      35.47500000 
C      35.19300000      23.98300000      34.21800000 
C      34.08800000      24.78400000      33.59900000 
C      33.95200000      24.79900000      32.21700000 
C      33.20800000      25.53800000      34.35600000 
C      32.98100000      25.56000000      31.60400000 
C      32.22800000      26.30700000      33.75100000 
C      32.12800000      26.32000000      32.37700000 
O      31.15300000      27.11300000      31.81500000 
H      34.45300000      21.99300000      36.15400000 
H      34.47400000      22.20300000      33.25500000 
H      35.33800000      24.27400000      35.24800000 
H      36.11400000      24.18400000      33.69100000 
H      34.62100000      24.21800000      31.62100000 
H      33.29400000      25.54000000      35.42100000 
H      32.89600000      25.58100000      30.53700000 
H      31.55400000      26.89900000      34.32700000 
H      31.19900000      27.16300000      30.86900000 
N      39.52400000      21.90700000      37.43400000 
C      39.15500000      23.08700000      38.16200000 
C      37.80000000      22.88500000      38.79300000 
O      37.47100000      21.74700000      39.17500000 
C      39.35000000      24.33300000      37.32100000 
C      38.80500000      24.23900000      35.91100000 
C      38.97700000      25.50600000      35.13000000 
O      39.23000000      25.46600000      33.91400000 
N      38.82900000      26.66200000      35.77200000 
H      39.07000000      21.72000000      36.56900000 
H      39.82900000      23.14800000      39.00000000 
H      38.93000000      25.16900000      37.84100000 
H      40.41200000      24.51300000      37.26500000 
H      39.32300000      23.47800000      35.35200000 
H      37.75500000      23.98100000      35.90800000 
H      38.58700000      26.73900000      36.73700000 
H      38.94100000      27.50100000      35.25300000 
N      37.00800000      23.92300000      39.00100000 
C      35.72900000      23.74200000      39.62300000 
C      34.78900000      24.77500000      39.07200000 
O      35.13200000      25.51600000      38.14300000 
C      35.80900000      23.75800000      41.16000000 
C      35.21400000      22.53700000      41.79300000 
O      34.25700000      22.62700000      42.58100000 
N      35.78100000      21.38100000      41.46800000 
H      37.26000000      24.84400000      38.71900000 
H      35.35500000      22.78300000      39.30700000 
H      36.85100000      23.80900000      41.43400000 
H      35.31600000      24.61400000      41.58100000 
H      35.44400000      20.53800000      41.86900000 
H      36.49500000      21.34000000      40.76700000 
N      33.57400000      24.85500000      39.61400000 
C      32.61700000      25.80000000      39.10300000 
C      32.72100000      27.14800000      39.76700000 
O      32.06000000      28.09500000      39.31600000 
C      31.21700000      25.27800000      39.28400000 
O      31.05200000      25.03600000      40.68400000 
H      33.28500000      24.24900000      40.34400000 
H      32.80000000      25.94500000      38.05200000 
H      30.52000000      26.02000000      38.93800000 
H      31.09000000      24.37200000      38.72100000 
H      30.14100000      24.92800000      40.93900000 
N      33.50000000      27.24700000      40.83900000 
C      33.51200000      28.39900000      41.69700000 
C      34.90200000      28.97500000      41.73900000 
O      35.84000000      28.31500000      42.22100000 
C      33.04200000      28.00200000      43.08400000 
O      31.64900000      27.71100000      42.92200000 
C      33.21400000      29.10000000      44.09500000 
H      33.98000000      26.43900000      41.15300000 
H      32.82300000      29.11700000      41.29800000 
H      33.57000000      27.11200000      43.39000000 
H      31.22700000      27.49900000      43.74700000 
H      32.87600000      28.77900000      45.07100000 
H      34.24200000      29.41200000      44.18100000 
H      32.60800000      29.93600000      43.79100000 
N      35.03400000      30.18800000      41.23300000 
C      36.26900000      30.91100000      41.19100000 
C      36.39800000      31.83800000      42.37400000 
O      35.44700000      32.10600000      43.11800000 
C      36.35300000      31.72600000      39.90900000 
C      35.29900000      32.80500000      39.82700000 
O      35.65500000      33.95300000      39.47100000 
O      34.10500000      32.46500000      40.10500000 
H      34.25200000      30.70600000      40.89800000 
H      37.08300000      30.20900000      41.23000000 
H      37.32800000      32.16900000      39.81700000 
H      36.21500000      31.05700000      39.07400000 
H      36.11690632      31.95907727      48.18659984 
H      31.65740578      26.91595021      49.87907733 
H      41.04933842      31.03167225      38.36729108 
H      39.74085092      31.61293185      36.63310702 
H      23.63602457      17.90345009      44.87672095 
H      23.29204738      16.81186969      41.01592268 
H      24.60686645      15.88633407      38.26734211 
H      24.06384125      15.07042078      34.39491873 
H      33.65293899      19.17226363      28.97382605 
H      21.52792584      21.99653111      43.89804053 
H      21.72469708      26.70626888      41.89611033 
H      21.06466114      25.08753708      39.00872680 
H      21.61167405      23.53027375      33.32830427 
H      36.80410835      21.53933140      33.56302379 
H      40.39985421      21.94156316      37.22983147 
H      37.27881240      32.26315424      42.58235879 
