 256 
 
N               124.5912534334       61.5300248397      141.4987447504
C               124.5254194016       62.8539679232      140.9051176459
C               125.8470401215       63.5779929931      141.1681148970
O               126.4643829382       64.1337415771      140.2619169210
C               123.3196869890       63.6552676614      141.4222682678
C               122.0195549898       63.0164795635      140.9140437985
C               123.4415135028       65.1108138520      140.9720956951
C               120.7652492607       63.6850894692      141.4676089224
H               123.8199351315       61.2084177625      142.0782988592
H               124.4547441865       62.7560787461      139.8117536777
H               123.3440707597       63.6140865275      142.5146121283
H               122.0059339538       63.0603518973      139.8224499098
H               122.0074695523       61.9629759459      141.1962896173
H               122.6107005032       65.6991971357      141.3452425250
H               124.3627951244       65.5556191796      141.3385811343
H               123.4534382151       65.1737653639      139.8858759167
H               119.8856725722       63.1172309094      141.1764919519
H               120.8109153493       63.7242817566      142.5517640195
H               120.6552773743       64.6950127981      141.0838279957
N               126.2824383719       63.5703810728      142.4278341246
C               127.5789567203       64.1470036532      142.7515291084
C               128.6244032912       63.5837267920      141.7799484335
O               129.3731930371       64.3076964513      141.1178892728
C               127.9891183827       63.8345760306      144.1902092855
C               127.0247545357       64.4133873313      145.2267831112
C               127.5195153148       64.0916391763      146.6393380335
C               126.4665000264       64.4510991656      147.6837233541
N               126.9777355235       64.1737665571      149.0536927668
H               125.7448196891       63.0960050597      143.1478250315
H               127.5385885419       65.2331505557      142.5899346080
H               128.0451302238       62.7510017456      144.2994246916
H               128.9912320476       64.2406875958      144.3392448032
H               126.9519421393       65.4923758901      145.0917011732
H               126.0344486433       63.9842300046      145.0727610075
H               127.7557769391       63.0275167329      146.6893040644
H               128.4400471808       64.6481220414      146.8174537718
H               126.2164433749       65.5095139174      147.6018123106
H               125.5646277976       63.8601165171      147.5172253430
H               126.2735493563       64.4141525005      149.7655794395
H               127.2267624953       63.1773082469      149.1485937907
H               127.8271424217       64.7320742000      149.2275794792
N               128.6447911816       62.2584735012      141.7169709651
C               129.5597209811       61.5303916542      140.8733577867
C               129.4716417310       61.9165818315      139.4047241723
O               130.4623623439       61.8140320128      138.6772635999
H               128.0195572583       61.7162099653      142.3094238544
H               130.5931164839       61.7002699796      141.2010198870
H               129.3367333913       60.4666722542      140.9552783595
N               128.2883755795       62.3486241294      138.9871898943
C               128.0079769769       62.7517407855      137.6346264650
C               128.3703851321       64.2118873462      137.3887570162
O               128.5459816615       64.6122759888      136.2377278764
C               126.5382111332       62.5392690978      137.2668964434
C               126.0887275177       61.0736205355      137.2678799730
C               124.5847584319       61.0224805262      137.0036057334
C               126.8365426378       60.2360121765      136.2342439258
H               127.4922084618       62.2616092357      139.6119914757
H               128.6441158671       62.1742111160      136.9556052131
H               125.9387506606       63.1109854476      137.9784506004
H               126.3899985490       62.9674446410      136.2731865651
H               126.2910474754       60.6573884621      138.2579245770
H               124.2371592639       59.9939712706      136.9680793760
H               124.0379775271       61.5477252494      137.7825305640
H               124.3612996953       61.4957823421      136.0504505350
H               126.4210891040       59.2324298374      136.1909728393
H               126.7697419830       60.6701648778      135.2395406038
H               127.8910952631       60.1385016573      136.4797850795
N               128.4955546060       65.0058544376      138.4505122465
C               129.0858321793       66.3188548142      138.2872512324
C               130.5782559836       66.1180473206      138.0073576852
O               131.1740784282       66.7781568780      137.1637919287
C               128.8669291505       67.2728145800      139.4895694265
O               129.7092186114       66.9857702235      140.5698119924
C               127.3907359973       67.3215450786      139.8843563973
H               128.1919403878       64.6903485562      139.3651733435
H               128.6524345010       66.7847503215      137.3945835658
H               129.1775209891       68.2678137576      139.1484059909
H               129.5171660823       66.0897080133      140.9102397393
H               127.2707574726       67.9987233631      140.7254825795
H               126.7961214321       67.6865693688      139.0524378057
H               127.0260832661       66.3362189130      140.1606850192
N               131.1639067296       65.1659335446      138.7382899730
C               132.5166233543       64.7267060992      138.4555500000
C               132.5807981619       64.1782667429      137.0229156055
O               133.4185993563       64.5773228119      136.2232056904
C               132.9739422000       63.6634685490      139.4540285095
C               133.0198076185       64.1938314012      140.8935106002
C               133.2328664486       63.0170673875      141.8317849587
O               132.3040537831       62.3424569355      142.2517017185
N               134.5071036620       62.7682929690      142.1589697261
H               130.6369535495       64.6700928148      139.4491965338
H               133.1869730506       65.5940849737      138.4816740567
H               132.2932721904       62.8123098906      139.3995786114
H               133.9626840417       63.3195353390      139.1453878944
H               133.8197745109       64.9227885872      141.0019595038
H               132.0661062059       64.6583419702      141.1443497634
H               135.2693176054       63.2779798094      141.7475895151
H               134.7186964030       61.9600391573      142.7218480479
N               131.6380588409       63.2849982208      136.7016709624
C               131.6763617514       62.6745362529      135.3871066801
C               131.4766622623       63.7359985509      134.3055328664
O               132.0334956948       63.6182869647      133.2188954036
C               130.6517425272       61.5566534953      135.2407770139
H               131.1101721575       62.7933620075      137.4289471557
H               132.6824977586       62.2655134007      135.2157158123
H               130.9056599596       60.9570769719      134.3709754550
H               130.6805715414       60.9199755277      136.1212817551
H               129.6535388648       61.9617443425      135.0954577311
N               130.6955210685       64.7690833989      134.6267214191
C               130.5240090182       65.8965976080      133.7349271809
C               131.8862355159       66.5507305315      133.5012599727
O               132.3045720515       66.7604510885      132.3686212165
C               129.5434350624       66.9079443616      134.3376054394
O               129.4499598889       68.0201482102      133.4749262011
H               130.0314288186       64.6963047404      135.3985136856
H               130.1620321248       65.5729491630      132.7499503201
H               128.5726521396       66.4122737751      134.4555725008
H               129.9248334346       67.2160149016      135.3197215142
H               128.7220246990       68.5770810236      133.7788500589
N               132.5682601044       66.8716087500      134.6024807116
C               133.9277702089       67.3664838786      134.4850029197
C               134.6803177844       66.4895328409      133.4748460657
O               135.2366145989       66.9981947799      132.5064698157
C               134.6659869831       67.3950675352      135.8205550246
C               134.0114121765       68.3438121780      136.8273313069
C               134.7830597679       68.3456633887      138.1467875766
N               133.9563479582       68.9138640248      139.2008517918
C               134.3157005638       69.0369202386      140.4758147727
N               135.5292994074       68.6697878348      140.8798017638
N               133.4381438995       69.4985570311      141.3641536894
H               132.2000162834       66.6566269020      135.5244801467
H               133.9059011874       68.3740634808      134.0459339278
H               134.6931943437       66.3800744685      136.2171686170
H               135.6948248971       67.6962742045      135.6093143406
H               133.9782294890       69.3497656399      136.4086674808
H               132.9901925506       68.0041066651      137.0047872366
H               135.0516499763       67.3132296117      138.3964503615
H               135.7028363650       68.9256824941      138.0241541835
H               133.0230032126       69.1855539421      138.9254952381
H               136.2305685909       68.3877607282      140.2148735976
H               135.8190763523       68.8243837341      141.8323879962
H               132.5033362818       69.7507253255      141.0876118177
H               133.6975102187       69.6223573838      142.3295325786
N               134.6223250498       65.1779143279      133.7122542745
C               135.3752519752       64.2268255868      132.9212893046
C               134.9866024531       64.3095384074      131.4419231609
O               135.8283944044       64.2271895624      130.5474756382
C               135.0852889297       62.7925243875      133.3615436183
C               135.4898505824       62.4679726964      134.7939608506
O               136.0353338270       63.2408411327      135.5580974238
N               135.1490126540       61.2149108080      135.1547338283
H               134.2573642873       64.8546114158      134.6044705639
H               136.4478785958       64.4613803546      132.9998829083
H               134.0151474953       62.6055686813      133.2406242471
H               135.6233483548       62.1201399085      132.6904814554
H               135.4412035963       60.8702693990      136.0551312020
H               134.7368932933       60.5786333476      134.4925449385
N               133.6802245086       64.3692310291      131.2068191868
C               133.1266644500       64.4188280475      129.8693694440
C               133.6555310568       65.6536811148      129.1452667725
O               134.0201469740       65.6093091703      127.9738798158
C               131.6076143948       64.4839178944      129.9410135226
H               133.0132966236       64.3334570320      131.9765209511
H               133.4515913246       63.5411873026      129.2942621122
H               131.1967967388       64.4583155078      128.9364007926
H               131.2297007644       63.6372454210      130.5071242046
H               131.3037135562       65.4112977226      130.4200818141
N               133.6631108585       66.7461065036      129.8994144628
C               134.0882043816       68.0438199651      129.4331223912
C               135.5930461791       68.0335790857      129.1650634041
O               136.0582299864       68.5796211140      128.1632920386
C               133.6652529160       69.0932675120      130.4550202168
C               132.1402921388       69.0466922902      130.6163082368
O               131.4121870375       68.5434279750      129.7809694842
N               131.6761578285       69.6348475925      131.7262702949
H               133.2961082689       66.6948687032      130.8436534702
H               133.5983984129       68.2514571644      128.4716507579
H               134.1589925532       68.8772712884      131.4030927877
H               133.9666387889       70.0837950730      130.1114170060
H               130.7022985804       69.5088515139      131.9599254570
H               132.3021851444       69.9933487445      132.4251782572
N               136.3266247610       67.3490791944      130.0337692722
C               137.7296830259       67.1007471417      129.7904170008
C               137.8489887791       66.4058378396      128.4425052108
O               138.6742557129       66.7539676203      127.6040367764
C               138.3332134007       66.2240377598      130.8746225548
C               138.3409161256       66.9333235594      132.2772558415
O               138.6058241772       68.1469675906      132.2922846407
O               138.1054595463       66.1995459021      133.2542029949
H               135.9370973417       67.0404287634      130.9200857266
H               138.2811170583       68.0510653877      129.7432045040
H               137.7869327338       65.2854773740      130.9585381770
H               139.3729496414       66.0077881007      130.6177247182
N               136.9905490787       65.4024671197      128.2578146544
C               136.9183404955       64.6492143279      127.0276651901
C               136.7103669687       65.5654431587      125.8220384932
O               137.4457876104       65.5179866798      124.8396295970
H               136.4241664835       65.0895135329      129.0405516459
H               137.8410151991       64.0825679273      126.8637259138
H               136.0648187383       63.9748439670      127.1003834655
N               136.0501693632       56.7508168899      128.8026675290
C               135.6298509062       57.8016460364      129.7135576195
C               134.2656860892       57.4430752407      130.3113438414
O               133.2154907361       57.5557091816      129.6920348017
C               135.5374787067       59.1667639050      129.0161426618
C               136.8383955581       59.5371953361      128.2943285663
C               135.1233674746       60.2276163225      130.0369238937
C               138.0432837457       59.7436769121      129.2050102489
H               135.7251958448       56.8165486215      127.8448572580
H               136.3715186807       57.8275605550      130.5194445918
H               134.7559582962       59.0746786724      128.2556152180
H               137.0636600883       58.7594714464      127.5602697747
H               136.6587570514       60.4607951567      127.7416405100
H               135.1276745022       61.2118622893      129.5752766516
H               134.1251347910       60.0224450008      130.4156617807
H               135.8107290152       60.2361426030      130.8788227776
H               138.9034939515       60.0287111483      128.6043614500
H               137.8572356800       60.5387701174      129.9207970564
H               138.2923550838       58.8305358502      129.7410958911
N               134.3011602257       57.0203164879      131.5793203032
C               133.0879901425       56.6942875776      132.3092638292
C               132.2109885436       57.9596954011      132.3797030725
O               132.6428003254       58.9963447583      132.8634027994
C               133.4519316117       56.2299137673      133.7174323511
C               132.2220753955       55.7757655042      134.4948946747
C               131.5997374403       54.5015423785      133.9411147501
O               132.1944396537       53.7083201590      133.2210999035
N               130.3469418159       54.3103727885      134.3644370316
H               135.1874457832       56.8414043206      132.0269253900
H               132.5430383748       55.9000768020      131.7855177596
H               134.1467010495       55.3914838645      133.6386092036
H               133.9296229338       57.0575963927      134.2431521794
H               132.5066601667       55.5544563975      135.5258870601
H               131.4603529523       56.5559598897      134.5205299501
H               129.8861102417       55.0171087980      134.9216851391
H               129.8365822981       53.4724860763      134.1160301784
N               130.9746914862       57.8060715139      131.8987620091
C               129.9834929496       58.8538343622      131.9141821531
C               128.7473288591       58.5210404979      132.7531072877
O               128.0788090350       59.4195031222      133.2406637738
C               129.5228494543       59.2798914924      130.4997412407
C               130.7019676775       59.8360209770      129.7092189795
C               128.8532561448       58.1425660352      129.7331957225
H               130.7116577504       56.9179688749      131.4901516309
H               130.4600174910       59.7213416824      132.3864873706
H               128.7860400181       60.0751171993      130.6561900151
H               130.3658720341       60.1488345830      128.7254799183
H               131.1409609341       60.6861944832      130.2258828094
H               131.4671880829       59.0723220840      129.5858696452
H               128.4880985378       58.5114073512      128.7784416779
H               129.5563943875       57.3372639356      129.5323398857
H               128.0124836815       57.7348825587      130.2889280534
H               124.6556827727       60.9118038199      140.8478594833
H               135.9594745946       66.2258631241      125.8195662863
H               136.9487127394       56.7377797622      128.7531717273
H               128.4863680251       57.5673156094      132.9024668543
