 304 
 
N               108.0780000000       65.2730000000      166.6750000000
C               107.6070000000       66.1160000000      165.5960000000
C               108.6070000000       67.2680000000      165.4160000000
O               109.0040000000       67.5180000000      164.2920000000
C               106.1920000000       66.6510000000      165.8940000000
H               107.5260000000       65.2230000000      167.3330000000
H               107.5490000000       65.6020000000      164.7760000000
H               105.8970000000       67.2120000000      165.1600000000
H               105.5790000000       65.9060000000      165.9980000000
H               106.2080000000       67.1720000000      166.7120000000
N               109.0490000000       67.8810000000      166.5190000000
C               110.0250000000       68.9660000000      166.4540000000
C               111.2980000000       68.4110000000      165.8120000000
O               111.8780000000       69.0480000000      164.9050000000
C               110.3500000000       69.4870000000      167.8700000000
C               109.0950000000       70.0350000000      168.5470000000
C               111.4330000000       70.5600000000      167.8430000000
C               108.3640000000       71.1370000000      167.7790000000
H               108.7930000000       67.6800000000      167.3150000000
H               109.6660000000       69.7020000000      165.9340000000
H               110.6840000000       68.7340000000      168.3810000000
H               108.4780000000       69.3010000000      168.6940000000
H               109.3410000000       70.3790000000      169.4200000000
H               111.6110000000       70.8630000000      168.7470000000
H               112.2450000000       70.1910000000      167.4600000000
H               111.1330000000       71.3090000000      167.3040000000
H               107.5850000000       71.4210000000      168.2830000000
H               108.9590000000       71.8920000000      167.6520000000
H               108.0830000000       70.7980000000      166.9150000000
N               111.5520000000       66.0570000000      163.7360000000
C               111.2990000000       65.9510000000      162.2960000000
C               111.6890000000       67.2290000000      161.5840000000
O               112.4890000000       67.2020000000      160.6500000000
C               109.8270000000       65.6560000000      162.0100000000
C               109.5170000000       64.2190000000      162.0790000000
C               108.1310000000       63.8670000000      161.6440000000
N               108.0010000000       62.4260000000      161.4820000000
C               107.9230000000       61.5820000000      162.5020000000
N               107.9460000000       62.0350000000      163.7910000000
N               107.9170000000       60.2730000000      162.2820000000
H               110.8930000000       65.8210000000      164.2360000000
H               111.8400000000       65.2170000000      161.9660000000
H               109.2740000000       66.1340000000      162.6480000000
H               109.5980000000       65.9910000000      161.1290000000
H               110.1510000000       63.7350000000      161.5260000000
H               109.6460000000       63.9150000000      162.9910000000
H               107.4900000000       64.1840000000      162.2990000000
H               107.9250000000       64.3120000000      160.8070000000
H               107.9730000000       62.1060000000      160.6840000000
H               108.0120000000       62.8780000000      163.9500000000
H               107.8950000000       61.4770000000      164.4440000000
H               107.9640000000       59.9720000000      161.4780000000
H               107.8660000000       59.7260000000      162.9440000000
N               111.1110000000       68.3330000000      162.0720000000
C               111.3480000000       69.6570000000      161.5060000000
C               112.8200000000       70.0780000000      161.4040000000
O               113.1480000000       71.0280000000      160.6830000000
C               110.6130000000       70.7120000000      162.3250000000
C               109.0790000000       70.7590000000      162.1860000000
C               108.4220000000       70.9820000000      163.5130000000
C               108.7450000000       71.8760000000      161.1910000000
H               110.5710000000       68.3300000000      162.7410000000
H               111.0150000000       69.5940000000      160.5970000000
H               110.8270000000       70.5710000000      163.2610000000
H               110.9650000000       71.5820000000      162.0810000000
H               108.7400000000       69.9110000000      161.8590000000
H               107.4590000000       71.0070000000      163.3970000000
H               108.6560000000       70.2590000000      164.1160000000
H               108.7250000000       71.8240000000      163.8870000000
H               107.7830000000       71.9330000000      161.0790000000
H               109.0820000000       72.7210000000      161.5280000000
H               109.1580000000       71.6820000000      160.3350000000
N               113.6770000000       69.4180000000      162.1770000000
C               115.0860000000       69.6930000000      162.1560000000
C               115.6510000000       69.0830000000      160.8660000000
O               115.6230000000       69.7190000000      159.8120000000
C               115.7440000000       69.0600000000      163.3850000000
O               117.0830000000       69.4760000000      163.5690000000
H               113.4460000000       68.7980000000      162.7260000000
H               115.2610000000       70.6470000000      162.1780000000
H               115.2280000000       69.2870000000      164.1750000000
H               115.7190000000       68.0940000000      163.2980000000
H               117.4000000000       69.1060000000      164.2530000000
N               110.5990000000       63.9610000000      153.3830000000
C               109.6050000000       64.8440000000      154.0010000000
C               110.2140000000       66.1580000000      154.4780000000
O               111.2680000000       66.1760000000      155.1120000000
C               108.8670000000       64.1240000000      155.1450000000
C               109.7910000000       63.7080000000      156.2600000000
O               110.1820000000       62.5020000000      156.3210000000
O               110.0900000000       64.5210000000      157.1500000000
H               110.9880000000       63.4320000000      153.9380000000
H               108.9580000000       65.0690000000      153.3150000000
H               108.1800000000       64.7090000000      155.5000000000
H               108.4180000000       63.3400000000      154.7920000000
N               109.6050000000       67.2740000000      154.0930000000
C               110.0720000000       68.5780000000      154.4910000000
C               108.9630000000       69.6030000000      154.4540000000
O               108.0580000000       69.5120000000      153.6310000000
C               111.1980000000       69.0370000000      153.5880000000
O               110.7770000000       69.4250000000      152.2920000000
H               108.9070000000       67.2880000000      153.5910000000
H               110.3920000000       68.5000000000      155.4030000000
H               111.6520000000       69.7840000000      154.0080000000
H               111.8470000000       68.3210000000      153.5060000000
H               111.4430000000       69.6690000000      151.8420000000
N               109.1030000000       70.6330000000      155.2810000000
C               108.1010000000       71.6910000000      155.3700000000
C               108.4640000000       72.9640000000      154.6020000000
O               109.4140000000       73.6660000000      154.9670000000
C               107.8380000000       72.0190000000      156.8490000000
C               107.6920000000       70.7580000000      157.7260000000
O               108.7180000000       70.2220000000      158.2260000000
O               106.5510000000       70.2880000000      157.8710000000
H               109.7770000000       70.7390000000      155.8040000000
H               107.2990000000       71.3490000000      154.9450000000
H               108.5660000000       72.5620000000      157.1900000000
H               107.0300000000       72.5510000000      156.9190000000
N               107.7270000000       73.2430000000      153.5300000000
C               107.8990000000       74.4470000000      152.7270000000
C               106.5750000000       75.2220000000      152.8650000000
O               106.4680000000       76.1070000000      153.7050000000
C               108.1330000000       74.0730000000      151.2590000000
C               108.0680000000       75.2560000000      150.2940000000
C               107.5970000000       75.0690000000      148.9800000000
C               108.4730000000       76.5460000000      150.6680000000
C               107.5490000000       76.0970000000      148.0710000000
C               108.4150000000       77.6130000000      149.7450000000
C               107.9530000000       77.3640000000      148.4640000000
O               107.9040000000       78.3920000000      147.5850000000
H               107.1010000000       72.7270000000      153.2450000000
H               108.6610000000       74.9710000000      153.0200000000
H               109.0020000000       73.6500000000      151.1780000000
H               107.4710000000       73.4150000000      150.9940000000
H               107.3100000000       74.2240000000      148.7200000000
H               108.7820000000       76.7000000000      151.5310000000
H               107.2500000000       75.9460000000      147.2040000000
H               108.6830000000       78.4680000000      149.9930000000
H               108.1760000000       79.0940000000      147.9590000000
N               105.5510000000       74.7930000000      152.1110000000
C               104.2490000000       75.4320000000      152.1430000000
C               103.2480000000       74.4270000000      152.6920000000
O               102.9520000000       74.4320000000      153.8830000000
C               103.8430000000       75.8420000000      150.7410000000
H               105.6020000000       74.1250000000      151.5720000000
H               104.2760000000       76.2240000000      152.7020000000
H               102.9720000000       76.2690000000      150.7680000000
H               104.4960000000       76.4640000000      150.3830000000
H               103.8000000000       75.0570000000      150.1730000000
N               102.7910000000       73.5180000000      151.8260000000
C               101.8080000000       72.4990000000      152.1890000000
C               102.1430000000       71.7190000000      153.4670000000
O               101.2450000000       71.3360000000      154.2250000000
C               101.5720000000       71.5370000000      151.0130000000
O               101.3750000000       72.3030000000      149.8190000000
C               100.3210000000       70.6830000000      151.2760000000
H               103.0460000000       73.4770000000      151.0060000000
H               100.9910000000       72.9830000000      152.3890000000
H               102.3410000000       70.9540000000      150.9140000000
H               101.2470000000       71.7840000000      149.1710000000
H               100.1790000000       70.0790000000      150.5300000000
H               100.4450000000       70.1690000000      152.0890000000
H                99.5490000000       71.2620000000      151.3750000000
N               103.4300000000       71.4820000000      153.6940000000
C               103.8560000000       70.7380000000      154.8650000000
C               103.9920000000       71.6280000000      156.1140000000
O               103.3640000000       71.3600000000      157.1190000000
C               105.1720000000       70.0060000000      154.5500000000
C               105.1060000000       68.9480000000      153.4610000000
C               104.1590000000       67.8350000000      153.8070000000
O               104.6000000000       66.8300000000      154.3830000000
O               102.9600000000       67.9290000000      153.4980000000
H               104.0690000000       71.7440000000      153.1820000000
H               103.1680000000       70.0880000000      155.0770000000
H               105.8350000000       70.6660000000      154.2940000000
H               105.4900000000       69.5860000000      155.3640000000
H               104.8270000000       69.3600000000      152.6280000000
H               105.9920000000       68.5820000000      153.3140000000
N               104.7610000000       72.7140000000      156.0040000000
C               104.9740000000       73.6340000000      157.1240000000
C               103.6950000000       73.9960000000      157.8840000000
O               103.6740000000       73.9730000000      159.1090000000
C               105.7470000000       74.9430000000      156.6940000000
C               104.7840000000       75.9520000000      156.1110000000
C               106.4560000000       75.5510000000      157.8990000000
H               105.1720000000       72.9370000000      155.2820000000
H               105.5340000000       73.1360000000      157.7400000000
H               106.4040000000       74.7070000000      156.0210000000
H               105.2700000000       76.7500000000      155.8510000000
H               104.3480000000       75.5710000000      155.3330000000
H               104.1150000000       76.1830000000      156.7750000000
H               106.9280000000       76.3540000000      157.6260000000
H               105.8030000000       75.7760000000      158.5800000000
H               107.0900000000       74.9110000000      158.2590000000
N               102.6380000000       74.3250000000      157.1450000000
C               101.3500000000       74.6840000000      157.7120000000
C               100.9750000000       73.6860000000      158.7890000000
O               100.7040000000       74.0440000000      159.9180000000
C               100.2910000000       74.6710000000      156.5970000000
O                99.0010000000       75.0520000000      157.0950000000
H               102.6540000000       74.3450000000      156.2850000000
H               101.3980000000       75.5700000000      158.1040000000
H               100.5580000000       75.2770000000      155.8880000000
H               100.2400000000       73.7840000000      156.2070000000
H                98.4430000000       75.0380000000      156.4670000000
N               101.0000000000       72.4090000000      158.4380000000
C               100.6780000000       71.3270000000      159.3600000000
C               101.4810000000       71.3830000000      160.6590000000
O               100.9320000000       71.1910000000      161.7480000000
C               100.9900000000       69.9800000000      158.7060000000
C               100.4500000000       69.8800000000      157.3040000000
O               101.1680000000       69.5380000000      156.3540000000
N                99.1750000000       70.1950000000      157.1390000000
H               101.2070000000       72.1410000000      157.6470000000
H                99.7400000000       71.4270000000      159.5860000000
H               101.9510000000       69.8460000000      158.6900000000
H               100.6140000000       69.2670000000      159.2460000000
H                98.8240000000       70.1660000000      156.3540000000
H                98.6990000000       70.4300000000      157.8150000000
N               102.7780000000       71.6720000000      160.5460000000
C               103.6600000000       71.7560000000      161.7220000000
C               103.5070000000       73.0130000000      162.5620000000
O               103.5800000000       72.9530000000      163.7930000000
C               105.1070000000       71.5290000000      161.3370000000
C               105.4180000000       70.0530000000      161.1320000000
S               104.7540000000       69.0770000000      162.4750000000
C               105.1940000000       67.4810000000      161.9600000000
H               103.1710000000       71.8240000000      159.7970000000
H               103.3640000000       71.0370000000      162.3020000000
H               105.3040000000       72.0160000000      160.5220000000
H               105.6850000000       71.8870000000      162.0290000000
H               105.0420000000       69.7520000000      160.2900000000
H               106.3780000000       69.9240000000      161.0760000000
H               104.8870000000       66.8340000000      162.6140000000
H               104.7830000000       67.2930000000      161.1020000000
H               106.1590000000       67.4220000000      161.8760000000
N               103.1910000000       74.1190000000      161.8900000000
C               102.9610000000       75.3700000000      162.6070000000
C               101.7500000000       75.1420000000      163.5350000000
O               101.8480000000       75.2540000000      164.7710000000
C               102.7190000000       76.5200000000      161.5980000000
O               103.8910000000       76.8220000000      160.8560000000
H               103.1060000000       74.1660000000      161.0350000000
H               103.7310000000       75.6270000000      163.1380000000
H               102.0050000000       76.2720000000      160.9900000000
H               102.4240000000       77.3120000000      162.0740000000
H               103.7290000000       77.4460000000      160.3180000000
N               100.6050000000       74.8470000000      162.9250000000
C                99.3850000000       74.5980000000      163.6960000000
C                99.7030000000       73.5790000000      164.7950000000
O                99.2970000000       73.7410000000      165.9430000000
C                98.2600000000       74.0170000000      162.7950000000
C                97.0920000000       73.3600000000      163.5810000000
C                97.0280000000       71.8710000000      163.2990000000
N                97.2260000000       71.5220000000      161.9100000000
C                97.8080000000       70.4040000000      161.5040000000
N                98.2800000000       69.5200000000      162.3620000000
N                97.8610000000       70.1180000000      160.1910000000
H               100.5110000000       74.7860000000      162.0720000000
H                99.0790000000       75.4380000000      164.0720000000
H                97.9040000000       74.7280000000      162.2400000000
H                98.6460000000       73.3580000000      162.1970000000
H                97.2120000000       73.5090000000      164.5320000000
H                96.2530000000       73.7780000000      163.3320000000
H                97.7010000000       71.4210000000      163.8340000000
H                96.1650000000       71.5340000000      163.5870000000
H                96.9490000000       72.0740000000      161.3110000000
H                98.2130000000       69.6630000000      163.2070000000
H                98.6540000000       68.8000000000      162.0760000000
H                97.5180000000       70.6600000000      159.6190000000
H                98.2380000000       69.3930000000      159.9240000000
N               100.5000000000       72.5650000000      164.4470000000
C               100.8760000000       71.5150000000      165.3940000000
C               101.6090000000       72.1060000000      166.6060000000
O               101.3120000000       71.7170000000      167.7470000000
C               101.7080000000       70.4650000000      164.7390000000
H               100.8350000000       72.4680000000      163.6610000000
H               100.0580000000       71.0960000000      165.7060000000
H               101.9410000000       69.7840000000      165.3890000000
H               101.2070000000       70.0600000000      164.0140000000
H               102.5180000000       70.8660000000      164.3870000000
N               102.5350000000       73.0450000000      166.3810000000
C               103.2980000000       73.6550000000      167.4660000000
C               102.4120000000       74.3670000000      168.4550000000
O               102.4030000000       74.0000000000      169.6190000000
C               104.4180000000       74.5480000000      166.9430000000
C               105.5070000000       73.7560000000      166.2390000000
C               106.6620000000       74.6440000000      165.8120000000
O               107.4000000000       75.1700000000      166.6310000000
N               106.8410000000       74.8240000000      164.5200000000
H               102.7340000000       73.3420000000      165.5990000000
H               103.7230000000       72.9310000000      167.9520000000
H               104.0480000000       75.2010000000      166.3290000000
H               104.8070000000       75.0420000000      167.6820000000
H               105.8350000000       73.0600000000      166.8300000000
H               105.1340000000       73.3140000000      165.4610000000
H               106.3130000000       74.4470000000      163.9560000000
H               107.4860000000       75.3190000000      164.2400000000
H               108.2098460023       64.4373976058      166.3677781413
H               111.6706720829       67.5346079313      166.1170450138
H               112.2475821806       65.5309490429      163.9583416751
H               116.0448400420       68.1639026064      160.8782475489
H               110.1993479439       63.4473495662      152.7613558366
H               101.8403681111       75.1306426016      168.1548551006
