 188 
 
N               203.2602580560       65.3521834594      120.1072519974
C               204.5501358479       64.6922952128      120.2582612747
C               205.5495937261       65.7183902467      120.8003662358
O               205.6321698299       66.8400431767      120.3091129512
C               205.0206191909       64.0980698079      118.9216764128
C               203.9900656817       63.1130148445      118.3519987495
C               206.3723142562       63.4102375147      119.1063049096
C               204.1474643333       62.9373199120      116.8453230335
H               202.9751910298       65.5959639114      119.1637514987
H               204.4229827738       63.8972432364      121.0021306305
H               205.1268961402       64.9351408870      118.2271812335
H               204.1095885993       62.1510909932      118.8524517029
H               202.9832390335       63.4778529420      118.5570941980
H               206.7061140858       62.9773466994      118.1683382310
H               207.1379466605       64.0983285901      119.4559496187
H               206.2937196554       62.6035067309      119.8322476851
H               203.3935823175       62.2496330244      116.4731846757
H               204.0185963255       63.8967358872      116.3514045330
H               205.1264309428       62.5372704139      116.5976101182
N               206.2620167496       65.3269057189      121.8603963491
C               207.2476871322       66.1462498762      122.5332749388
C               208.6315652242       65.9216264919      121.8971104816
O               208.7989100587       65.1072265361      121.0031578135
C               207.2552434990       65.7979027232      124.0194942936
H               206.2376859633       64.3572587137      122.1379712359
H               206.9688458388       67.1964718203      122.3854790398
H               207.8854925779       66.4874110850      124.5718255058
H               206.2416851187       65.8612238620      124.4059066062
H               207.6345502082       64.7882587791      124.1639704983
N               212.6612772911       65.1756382531      122.9470598292
C               213.6536832715       64.7680207308      123.9132813608
C               215.0206486044       65.2289647223      123.4102758106
O               215.5541419455       64.7517755421      122.4190711969
C               213.7444106412       63.2621348245      124.1492549664
C               215.0642028708       62.9974321128      124.9273117518
O               215.3739482537       63.8701481745      125.7813919170
O               215.7389739541       61.9972156945      124.6545116130
H               212.7107726439       64.7663309813      122.0193219645
H               213.4059796819       65.2700037010      124.8543887691
H               212.8957515093       62.8998875086      124.7306719099
H               213.7782054532       62.7096138053      123.2082045373
N               214.7702812586       71.3811934798      111.3038807474
C               214.8924504347       72.0267880887      112.5848988842
C               216.2865160245       72.6322433480      112.7179581895
O               217.2695343932       72.1015876296      112.2135850641
C               214.7530014044       71.0080583255      113.7360313287
C               213.4267021868       70.3084693619      113.7635177809
C               213.1651380062       69.2754138368      112.8711398201
C               212.4592800370       70.6398352021      114.7020473789
C               211.9747526621       68.5801460135      112.9125703301
C               211.2710239408       69.9328992752      114.7707891164
C               211.0294795203       68.8970821270      113.8794426737
O               209.8775231102       68.1591281364      113.9390022801
H               215.5140564960       70.7318104443      111.0861964507
H               214.1250921440       72.8036969239      112.6435454194
H               215.5428414205       70.2677598591      113.5917634371
H               214.9222722162       71.5329530152      114.6774187526
H               213.9174148766       69.0036986768      112.1493454644
H               212.6351055306       71.4429152287      115.4030355705
H               211.7874915719       67.7945797087      112.2029680645
H               210.5382152745       70.1859642285      115.5260935543
H               209.3462917358       68.4681852825      114.6831955220
N               214.9837839054       64.9682406132      114.0223291261
C               214.0899869803       64.4796356167      115.0524767848
C               213.5653098083       63.0969784079      114.6637879266
O               213.1576149199       62.8602773103      113.5349230696
C               212.9149186657       65.4691903689      115.2370486510
C               211.9462611295       64.9588361300      116.2993282711
C               213.4505347029       66.8396974781      115.6434021447
H               214.6365691393       64.9085038422      113.0758255385
H               214.6524351850       64.4103517189      115.9841833984
H               212.3977571379       65.5534536740      114.2763392881
H               211.1552774357       65.6839426687      116.4694936795
H               211.5019007237       64.0072357307      116.0209527728
H               212.4679197269       64.8069448943      117.2433524296
H               212.6314133986       67.5324172693      115.8105194919
H               214.0150177044       66.7505874192      116.5687698185
H               214.1038173850       67.2595526753      114.8834306211
N               213.6087940083       62.1909518181      115.6503996250
C               212.9266510454       60.9133984243      115.5680911764
C               211.4401783614       61.2426001323      115.7409765476
O               210.9841077054       61.6913137349      116.7888472751
C               213.4266459507       59.9731407856      116.6490487174
C               212.5852046658       58.6727636792      116.7126060510
O               213.1614633691       57.6053345001      116.9517200831
O               211.3535752348       58.8122904554      116.5045887226
H               213.8685673199       62.4970592955      116.5786645579
H               213.1073903553       60.4871574054      114.5743852964
H               214.4789052354       59.7180978510      116.5143443137
H               213.3039246180       60.4445688396      117.6276955898
N               210.7159741602       61.2313813010      114.6133616196
C               209.3518437317       61.7211023695      114.5853658892
C               208.3909971788       60.8855531312      115.4451904534
O               207.2968870653       61.3380989728      115.7537401387
C               208.8182472706       61.7988401507      113.1446839078
C               208.7532867878       63.2190750998      112.5791717479
C               210.1122597499       63.9278933981      112.5448762029
C               210.1441475763       65.0665741188      111.5310754885
N               209.2274230437       66.1785769923      111.9182330006
H               211.1110016749       60.8482902508      113.7687362022
H               209.3488098315       62.7134321711      115.0549902168
H               209.4455246028       61.1684240472      112.5131593466
H               207.8123892501       61.3752738739      113.1345279883
H               208.3620671433       63.1302279795      111.5646962441
H               208.0397417325       63.7766403209      113.1869785673
H               210.3747252213       64.2941186417      113.5377149346
H               210.8916873477       63.2157160362      112.2720599176
H               211.1601102537       65.4530626565      111.4562245114
H               209.8380363867       64.6883551236      110.5551650150
H               209.1477770944       66.8629926376      111.1519343761
H               208.2926863621       65.7966594255      112.1243946021
H               209.5685380232       66.6874615925      112.7616423351
N               208.7973137943       59.6445128573      115.7268024550
C               208.0090870513       58.7288667342      116.5136576120
C               208.0817351920       59.0130998585      118.0137449866
O               207.0704945199       59.0567661284      118.6998071440
C               208.4831199473       57.2949425824      116.2164697865
O               208.3585354142       57.1185629336      114.8203649647
C               207.6625179017       56.2564763650      116.9778269183
H               209.7755391924       59.3995512238      115.6381037315
H               206.9604196409       58.8423904036      116.2123821326
H               209.5453087911       57.2288687107      116.5071008293
H               208.6839578717       56.2371487750      114.5987992795
H               208.0750414310       55.2640666995      116.8123917692
H               207.6820810595       56.4731281658      118.0414517298
H               206.6324852247       56.2824159148      116.6314925900
N               209.3177742527       59.1809181607      118.5164637371
C               209.5055976368       59.3035053694      119.9427566146
C               210.0996938299       60.6437394999      120.4067315703
O               210.2029739364       60.8934619088      121.6036942456
C               210.3294802069       58.1498777552      120.5246306583
C               211.8268907347       58.3694687840      120.3349497488
O               212.2661364592       59.3419819098      119.7254431198
N               212.5923956689       57.4441984515      120.9080284446
H               210.1334761816       59.0728455404      117.9154418434
H               208.4937439532       59.2639432446      120.3722283925
H               210.1432962655       58.0938731713      121.5978112977
H               210.0402996604       57.2082405107      120.0570125679
H               213.6152788929       57.5486154674      120.9545182845
H               212.1737212684       56.6886309589      121.4216601266
N               210.3673867556       61.5104378858      119.4327784801
C               210.7830779959       62.8698075525      119.6289673020
C               212.2383080601       63.1433450953      119.9769632141
O               212.5764734292       64.2879120165      120.2905419266
H               210.3926845040       61.1631704239      118.4803365344
H               210.5899443768       63.4052987406      118.6962291407
H               210.1757443571       63.3319762694      120.4158659003
N               213.1194227251       62.1495563584      119.8980944729
C               214.5260758982       62.3972920531      120.1553686796
C               215.0856928876       63.3884517840      119.1310751944
O               214.6357810378       63.4691730308      117.9924420213
C               215.3448665519       61.1145098396      120.0533823762
C               215.0839562354       60.1423216760      121.1920440061
C               215.8769974648       58.8246937109      120.9562784651
O               215.3037298815       57.7524435311      121.2544080688
O               217.0317778562       58.9218357691      120.5067657746
H               212.8167295311       61.2020338803      119.7066185291
H               214.6476740863       62.8330267750      121.1560982807
H               215.1193758684       60.6176008789      119.1049513661
H               216.4082363668       61.3637857211      120.0555719491
H               215.4146401445       60.5717748496      122.1432576768
H               214.0236691409       59.9033635031      121.2729288981
N               206.4674730943       68.3991497342      117.9743574983
C               206.5985682712       68.1352282561      116.5553211766
C               205.3927183695       68.7322497737      115.8184590438
O               204.2832784383       68.7710024280      116.3448159828
C               206.7128422002       66.6168103063      116.3051972237
C               206.9060441673       66.2814865632      114.8278677796
C               207.8848379343       66.0523514295      117.1084829769
H               205.9293326209       67.7639518546      118.5526408527
H               207.5056677574       68.6607553617      116.2372423690
H               205.7822711960       66.1654711680      116.6601660857
H               206.9543111401       65.1994421037      114.7433761135
H               206.0843532718       66.6415079282      114.2159373854
H               207.8397929981       66.7136652211      114.4832781436
H               207.9561871509       64.9787835414      116.9624431888
H               208.8198398413       66.5102757173      116.7961078957
H               207.7679293123       66.2332738392      118.1738080409
H               202.6101237719       64.8174283020      120.4256265163
H               209.4195213416       66.4489872188      122.2149403428
H               211.8408075253       64.9682113695      123.2533333204
H               215.5157946624       65.9487484450      123.8968369822
H               214.0009801501       70.9150227043      111.2745445502
H               216.4155168870       73.4833079229      113.2269256411
H               215.1651089886       65.8374279472      114.1694161501
H               215.8402012135       63.9946904354      119.3824551533
H               207.2830009456       68.4077403589      118.3549366949
H               205.5024877941       69.0981176781      114.8942884156
